11_
XXILIB    08252103513D 0   0.00000     0.00000

 26 28  0     1  0            999 V2000
   -1.2945   -0.0510    8.0328 S   0  0  2  0  0  6           0  0  0
   -0.3859    1.0540    8.2684 O   0  0  0  0  0  2           0  0  0
   -2.5321   -0.1692    8.7787 O   0  0  0  0  0  2           0  0  0
    1.3868    0.0000    0.0000 O   0  0  0  0  0  2           0  0  0
   -0.6847   -0.0000    1.1639 N   0  0  0  0  0  3           0  0  0
   -2.7069    0.0043   -0.0944 N   0  0  0  0  0  3           0  0  0
   -0.4337   -1.5189    8.1340 N   0  0  0  0  0  3           0  0  0
   -2.8030    0.0049    2.2606 N   0  0  0  0  0  3           0  0  0
   -2.6687    0.0271   -2.4653 N   0  0  0  0  0  3           0  0  0
   -1.7066   -0.0432    6.3178 C   0  0  0  0  0  4           0  0  0
    0.0000    0.0000    0.0000 C   0  0  0  0  0  4           0  0  0
   -2.0355    0.0034    1.0836 C   0  0  0  0  0  4           0  0  0
   -1.9949   -0.0121   -1.2473 C   0  0  0  0  0  4           0  0  0
   -2.4154    0.0035    3.6031 C   0  0  0  0  0  4           0  0  0
   -2.9009   -0.6312    5.9083 C   0  0  0  0  0  4           0  0  0
   -0.8658    0.5766    5.3977 C   0  0  0  0  0  4           0  0  0
   -0.6104   -0.0003   -1.2374 C   0  0  0  0  0  4           0  0  0
   -3.2473   -0.6080    4.5561 C   0  0  0  0  0  4           0  0  0
   -1.2220    0.5965    4.0460 C   0  0  0  0  0  4           0  0  0
    2.0000    0.0000    1.2903 C   0  0  0  0  0  4           0  0  0
    3.5162    0.0000    1.1135 C   0  0  2  0  0  4           0  0  0
    3.9928   -1.2387    0.3379 C   0  0  0  0  0  4           0  0  0
    4.2416    0.0907    2.4657 C   0  0  0  0  0  4           0  0  0
    5.5099   -1.2373    0.1577 C   0  0  0  0  0  4           0  0  0
    5.7590    0.0938    2.2880 C   0  0  0  0  0  4           0  0  0
    6.2333   -1.1212    1.4962 C   0  0  0  0  0  4           0  0  0
  1  2  2  0     0  0
  1  3  2  0     0  0
  1  7  1  0     0  0
  1 10  1  0     0  0
  4 11  1  0     0  0
  4 20  1  0     0  0
  5 11  2  0     0  0
  5 12  1  0     0  0
  6 12  2  0     0  0
  6 13  1  0     0  0
  8 12  1  0     0  0
  8 14  1  0     0  0
  9 13  1  0     0  0
 10 15  2  0     0  0
 10 16  1  0     0  0
 11 17  1  0     0  0
 13 17  2  0     0  0
 14 18  2  0     0  0
 14 19  1  0     0  0
 15 18  1  0     0  0
 16 19  2  0     0  0
 20 21  1  0     0  0
 21 22  1  0     0  0
 21 23  1  0     0  0
 22 24  1  0     0  0
 23 25  1  0     0  0
 24 26  1  0     0  0
 25 26  1  0     0  0
M  END
> <Compound >
11

> <standard_type>
pIC50

> <# Confs.>
25

> <canonical_smiles>
NC1=CC(OCC2CCCCC2)=NC(NC3=CC=C(S(=O)(N)=O)C=C3)=N1

> <standard_relation>
=

> <predicted_activity_value>
5.566486179335457

> <actual_activity_value>
5.533132379645891

> <Publication ID>
nan

> <standard_units>
nM

> hash
10879493924106730428

$$$$
11_
XXILIB    08252103513D 0   0.00000     0.00000

 26 28  0     1  0            999 V2000
   -1.2945   -0.0510    8.0328 S   0  0  2  0  0  6           0  0  0
   -0.3859    1.0540    8.2684 O   0  0  0  0  0  2           0  0  0
   -2.5321   -0.1692    8.7787 O   0  0  0  0  0  2           0  0  0
    1.3868    0.0000    0.0000 O   0  0  0  0  0  2           0  0  0
   -0.6847   -0.0000    1.1639 N   0  0  0  0  0  3           0  0  0
   -2.7069    0.0043   -0.0944 N   0  0  0  0  0  3           0  0  0
   -0.4337   -1.5189    8.1340 N   0  0  0  0  0  3           0  0  0
   -2.8030    0.0049    2.2606 N   0  0  0  0  0  3           0  0  0
   -2.6687    0.0271   -2.4653 N   0  0  0  0  0  3           0  0  0
   -1.7066   -0.0432    6.3178 C   0  0  0  0  0  4           0  0  0
    0.0000    0.0000    0.0000 C   0  0  0  0  0  4           0  0  0
   -2.0355    0.0034    1.0836 C   0  0  0  0  0  4           0  0  0
   -1.9949   -0.0121   -1.2473 C   0  0  0  0  0  4           0  0  0
   -2.4154    0.0035    3.6031 C   0  0  0  0  0  4           0  0  0
   -2.9009   -0.6312    5.9083 C   0  0  0  0  0  4           0  0  0
   -0.8658    0.5766    5.3977 C   0  0  0  0  0  4           0  0  0
   -0.6104   -0.0003   -1.2374 C   0  0  0  0  0  4           0  0  0
   -3.2473   -0.6080    4.5561 C   0  0  0  0  0  4           0  0  0
   -1.2220    0.5965    4.0460 C   0  0  0  0  0  4           0  0  0
    2.0000    0.0000    1.2903 C   0  0  0  0  0  4           0  0  0
    3.5162    0.0000    1.1135 C   0  0  2  0  0  4           0  0  0
    4.2412    0.0000    2.4690 C   0  0  0  0  0  4           0  0  0
    3.9846    1.1906    0.2614 C   0  0  0  0  0  4           0  0  0
    5.7587   -0.0036    2.2925 C   0  0  0  0  0  4           0  0  0
    5.5018    1.1883    0.0823 C   0  0  0  0  0  4           0  0  0
    6.2250    1.1623    1.4256 C   0  0  0  0  0  4           0  0  0
  1  2  2  0     0  0
  1  3  2  0     0  0
  1  7  1  0     0  0
  1 10  1  0     0  0
  4 11  1  0     0  0
  4 20  1  0     0  0
  5 11  2  0     0  0
  5 12  1  0     0  0
  6 12  2  0     0  0
  6 13  1  0     0  0
  8 12  1  0     0  0
  8 14  1  0     0  0
  9 13  1  0     0  0
 10 15  2  0     0  0
 10 16  1  0     0  0
 11 17  1  0     0  0
 13 17  2  0     0  0
 14 18  2  0     0  0
 14 19  1  0     0  0
 15 18  1  0     0  0
 16 19  2  0     0  0
 20 21  1  0     0  0
 21 22  1  0     0  0
 21 23  1  0     0  0
 22 24  1  0     0  0
 23 25  1  0     0  0
 24 26  1  0     0  0
 25 26  1  0     0  0
M  END
> <Compound >
11

> <standard_type>
pIC50

> <# Confs.>
25

> <canonical_smiles>
NC1=CC(OCC2CCCCC2)=NC(NC3=CC=C(S(=O)(N)=O)C=C3)=N1

> <standard_relation>
=

> <predicted_activity_value>
5.566486179335457

> <actual_activity_value>
5.533132379645891

> <Publication ID>
nan

> <standard_units>
nM

> hash
10879493924106730428

$$$$
11_
XXILIB    08252103513D 0   0.00000     0.00000

 26 28  0     1  0            999 V2000
   -1.2630    0.1052    8.0239 S   0  0  2  0  0  6           0  0  0
    0.1771   -0.0418    8.1047 O   0  0  0  0  0  2           0  0  0
   -1.9277    1.2549    8.6058 O   0  0  0  0  0  2           0  0  0
    1.3868    0.0000    0.0000 O   0  0  0  0  0  2           0  0  0
   -0.6847   -0.0000    1.1639 N   0  0  0  0  0  3           0  0  0
   -2.7069    0.0043   -0.0944 N   0  0  0  0  0  3           0  0  0
   -2.0070   -1.3207    8.5884 N   0  0  0  0  0  3           0  0  0
   -2.8030    0.0049    2.2606 N   0  0  0  0  0  3           0  0  0
   -2.6687    0.0271   -2.4653 N   0  0  0  0  0  3           0  0  0
   -1.7085    0.0410    6.3185 C   0  0  0  0  0  4           0  0  0
   -0.0000    0.0000    0.0000 C   0  0  0  0  0  4           0  0  0
   -2.0355    0.0034    1.0836 C   0  0  0  0  0  4           0  0  0
   -1.9949   -0.0121   -1.2473 C   0  0  0  0  0  4           0  0  0
   -2.4154    0.0035    3.6031 C   0  0  0  0  0  4           0  0  0
   -2.8956    0.6427    5.9082 C   0  0  0  0  0  4           0  0  0
   -0.8635   -0.5694    5.3958 C   0  0  0  0  0  4           0  0  0
   -0.6104   -0.0003   -1.2374 C   0  0  0  0  0  4           0  0  0
   -3.2442    0.6185    4.5565 C   0  0  0  0  0  4           0  0  0
   -1.2201   -0.5870    4.0442 C   0  0  0  0  0  4           0  0  0
    2.0000    0.0000    1.2903 C   0  0  0  0  0  4           0  0  0
    3.5162    0.0000    1.1135 C   0  0  2  0  0  4           0  0  0
    3.9928   -1.2387    0.3379 C   0  0  0  0  0  4           0  0  0
    4.2416    0.0907    2.4657 C   0  0  0  0  0  4           0  0  0
    5.5099   -1.2373    0.1577 C   0  0  0  0  0  4           0  0  0
    5.7590    0.0938    2.2880 C   0  0  0  0  0  4           0  0  0
    6.2333   -1.1212    1.4962 C   0  0  0  0  0  4           0  0  0
  1  2  2  0     0  0
  1  3  2  0     0  0
  1  7  1  0     0  0
  1 10  1  0     0  0
  4 11  1  0     0  0
  4 20  1  0     0  0
  5 11  2  0     0  0
  5 12  1  0     0  0
  6 12  2  0     0  0
  6 13  1  0     0  0
  8 12  1  0     0  0
  8 14  1  0     0  0
  9 13  1  0     0  0
 10 15  2  0     0  0
 10 16  1  0     0  0
 11 17  1  0     0  0
 13 17  2  0     0  0
 14 18  2  0     0  0
 14 19  1  0     0  0
 15 18  1  0     0  0
 16 19  2  0     0  0
 20 21  1  0     0  0
 21 22  1  0     0  0
 21 23  1  0     0  0
 22 24  1  0     0  0
 23 25  1  0     0  0
 24 26  1  0     0  0
 25 26  1  0     0  0
M  END
> <Compound >
11

> <standard_type>
pIC50

> <# Confs.>
25

> <canonical_smiles>
NC1=CC(OCC2CCCCC2)=NC(NC3=CC=C(S(=O)(N)=O)C=C3)=N1

> <standard_relation>
=

> <predicted_activity_value>
5.566486179335457

> <actual_activity_value>
5.533132379645891

> <Publication ID>
nan

> <standard_units>
nM

> hash
10879493924106730428

$$$$
11_
XXILIB    08252103513D 0   0.00000     0.00000

 26 28  0     1  0            999 V2000
   -1.2945   -0.0510    8.0328 S   0  0  2  0  0  6           0  0  0
   -0.3859    1.0540    8.2684 O   0  0  0  0  0  2           0  0  0
   -2.5321   -0.1692    8.7787 O   0  0  0  0  0  2           0  0  0
    1.3868    0.0000    0.0000 O   0  0  0  0  0  2           0  0  0
   -0.6847   -0.0000    1.1639 N   0  0  0  0  0  3           0  0  0
   -2.7069    0.0043   -0.0944 N   0  0  0  0  0  3           0  0  0
   -0.4337   -1.5189    8.1340 N   0  0  0  0  0  3           0  0  0
   -2.8030    0.0049    2.2606 N   0  0  0  0  0  3           0  0  0
   -2.6687    0.0271   -2.4653 N   0  0  0  0  0  3           0  0  0
   -1.7066   -0.0432    6.3178 C   0  0  0  0  0  4           0  0  0
    0.0000    0.0000    0.0000 C   0  0  0  0  0  4           0  0  0
   -2.0355    0.0034    1.0836 C   0  0  0  0  0  4           0  0  0
   -1.9949   -0.0121   -1.2473 C   0  0  0  0  0  4           0  0  0
   -2.4154    0.0035    3.6031 C   0  0  0  0  0  4           0  0  0
   -2.9009   -0.6312    5.9083 C   0  0  0  0  0  4           0  0  0
   -0.8658    0.5766    5.3977 C   0  0  0  0  0  4           0  0  0
   -0.6104   -0.0003   -1.2374 C   0  0  0  0  0  4           0  0  0
   -3.2473   -0.6080    4.5561 C   0  0  0  0  0  4           0  0  0
   -1.2220    0.5965    4.0460 C   0  0  0  0  0  4           0  0  0
    2.0000    0.0000    1.2903 C   0  0  0  0  0  4           0  0  0
    3.5162    0.0000    1.1135 C   0  0  2  0  0  4           0  0  0
    3.9928    1.2387    0.3379 C   0  0  0  0  0  4           0  0  0
    4.0028   -1.2813    0.4175 C   0  0  0  0  0  4           0  0  0
    5.5106    1.2408    0.1639 C   0  0  0  0  0  4           0  0  0
    5.5207   -1.2821    0.2436 C   0  0  0  0  0  4           0  0  0
    6.0001   -0.0411   -0.5034 C   0  0  0  0  0  4           0  0  0
  1  2  2  0     0  0
  1  3  2  0     0  0
  1  7  1  0     0  0
  1 10  1  0     0  0
  4 11  1  0     0  0
  4 20  1  0     0  0
  5 11  2  0     0  0
  5 12  1  0     0  0
  6 12  2  0     0  0
  6 13  1  0     0  0
  8 12  1  0     0  0
  8 14  1  0     0  0
  9 13  1  0     0  0
 10 15  2  0     0  0
 10 16  1  0     0  0
 11 17  1  0     0  0
 13 17  2  0     0  0
 14 18  2  0     0  0
 14 19  1  0     0  0
 15 18  1  0     0  0
 16 19  2  0     0  0
 20 21  1  0     0  0
 21 22  1  0     0  0
 21 23  1  0     0  0
 22 24  1  0     0  0
 23 25  1  0     0  0
 24 26  1  0     0  0
 25 26  1  0     0  0
M  END
> <Compound >
11

> <standard_type>
pIC50

> <# Confs.>
25

> <canonical_smiles>
NC1=CC(OCC2CCCCC2)=NC(NC3=CC=C(S(=O)(N)=O)C=C3)=N1

> <standard_relation>
=

> <predicted_activity_value>
5.566486179335457

> <actual_activity_value>
5.533132379645891

> <Publication ID>
nan

> <standard_units>
nM

> hash
10879493924106730428

$$$$
11_
XXILIB    08252103513D 0   0.00000     0.00000

 26 28  0     1  0            999 V2000
   -1.2630    0.1052    8.0239 S   0  0  2  0  0  6           0  0  0
    0.1771   -0.0418    8.1047 O   0  0  0  0  0  2           0  0  0
   -1.9277    1.2549    8.6058 O   0  0  0  0  0  2           0  0  0
    1.3868    0.0000    0.0000 O   0  0  0  0  0  2           0  0  0
   -0.6847   -0.0000    1.1639 N   0  0  0  0  0  3           0  0  0
   -2.7069    0.0043   -0.0944 N   0  0  0  0  0  3           0  0  0
   -2.0070   -1.3207    8.5884 N   0  0  0  0  0  3           0  0  0
   -2.8030    0.0049    2.2606 N   0  0  0  0  0  3           0  0  0
   -2.6687    0.0271   -2.4653 N   0  0  0  0  0  3           0  0  0
   -1.7085    0.0410    6.3185 C   0  0  0  0  0  4           0  0  0
   -0.0000    0.0000    0.0000 C   0  0  0  0  0  4           0  0  0
   -2.0355    0.0034    1.0836 C   0  0  0  0  0  4           0  0  0
   -1.9949   -0.0121   -1.2473 C   0  0  0  0  0  4           0  0  0
   -2.4154    0.0035    3.6031 C   0  0  0  0  0  4           0  0  0
   -2.8956    0.6427    5.9082 C   0  0  0  0  0  4           0  0  0
   -0.8635   -0.5694    5.3958 C   0  0  0  0  0  4           0  0  0
   -0.6104   -0.0003   -1.2374 C   0  0  0  0  0  4           0  0  0
   -3.2442    0.6185    4.5565 C   0  0  0  0  0  4           0  0  0
   -1.2201   -0.5870    4.0442 C   0  0  0  0  0  4           0  0  0
    2.0000    0.0000    1.2903 C   0  0  0  0  0  4           0  0  0
    3.5162    0.0000    1.1135 C   0  0  2  0  0  4           0  0  0
    4.2412    0.0000    2.4690 C   0  0  0  0  0  4           0  0  0
    3.9846    1.1906    0.2614 C   0  0  0  0  0  4           0  0  0
    5.7587   -0.0036    2.2925 C   0  0  0  0  0  4           0  0  0
    5.5018    1.1883    0.0823 C   0  0  0  0  0  4           0  0  0
    6.2250    1.1623    1.4256 C   0  0  0  0  0  4           0  0  0
  1  2  2  0     0  0
  1  3  2  0     0  0
  1  7  1  0     0  0
  1 10  1  0     0  0
  4 11  1  0     0  0
  4 20  1  0     0  0
  5 11  2  0     0  0
  5 12  1  0     0  0
  6 12  2  0     0  0
  6 13  1  0     0  0
  8 12  1  0     0  0
  8 14  1  0     0  0
  9 13  1  0     0  0
 10 15  2  0     0  0
 10 16  1  0     0  0
 11 17  1  0     0  0
 13 17  2  0     0  0
 14 18  2  0     0  0
 14 19  1  0     0  0
 15 18  1  0     0  0
 16 19  2  0     0  0
 20 21  1  0     0  0
 21 22  1  0     0  0
 21 23  1  0     0  0
 22 24  1  0     0  0
 23 25  1  0     0  0
 24 26  1  0     0  0
 25 26  1  0     0  0
M  END
> <Compound >
11

> <standard_type>
pIC50

> <# Confs.>
25

> <canonical_smiles>
NC1=CC(OCC2CCCCC2)=NC(NC3=CC=C(S(=O)(N)=O)C=C3)=N1

> <standard_relation>
=

> <predicted_activity_value>
5.566486179335457

> <actual_activity_value>
5.533132379645891

> <Publication ID>
nan

> <standard_units>
nM

> hash
10879493924106730428

$$$$
11_
XXILIB    08252103513D 0   0.00000     0.00000

 26 28  0     1  0            999 V2000
   -1.2630    0.1052    8.0239 S   0  0  2  0  0  6           0  0  0
    0.1771   -0.0418    8.1047 O   0  0  0  0  0  2           0  0  0
   -1.9277    1.2549    8.6058 O   0  0  0  0  0  2           0  0  0
    1.3868    0.0000    0.0000 O   0  0  0  0  0  2           0  0  0
   -0.6847   -0.0000    1.1639 N   0  0  0  0  0  3           0  0  0
   -2.7069    0.0043   -0.0944 N   0  0  0  0  0  3           0  0  0
   -2.0070   -1.3207    8.5884 N   0  0  0  0  0  3           0  0  0
   -2.8030    0.0049    2.2606 N   0  0  0  0  0  3           0  0  0
   -2.6687    0.0271   -2.4653 N   0  0  0  0  0  3           0  0  0
   -1.7085    0.0410    6.3185 C   0  0  0  0  0  4           0  0  0
   -0.0000    0.0000    0.0000 C   0  0  0  0  0  4           0  0  0
   -2.0355    0.0034    1.0836 C   0  0  0  0  0  4           0  0  0
   -1.9949   -0.0121   -1.2473 C   0  0  0  0  0  4           0  0  0
   -2.4154    0.0035    3.6031 C   0  0  0  0  0  4           0  0  0
   -2.8956    0.6427    5.9082 C   0  0  0  0  0  4           0  0  0
   -0.8635   -0.5694    5.3958 C   0  0  0  0  0  4           0  0  0
   -0.6104   -0.0003   -1.2374 C   0  0  0  0  0  4           0  0  0
   -3.2442    0.6185    4.5565 C   0  0  0  0  0  4           0  0  0
   -1.2201   -0.5870    4.0442 C   0  0  0  0  0  4           0  0  0
    2.0000    0.0000    1.2903 C   0  0  0  0  0  4           0  0  0
    3.5162    0.0000    1.1135 C   0  0  2  0  0  4           0  0  0
    3.9928    1.2387    0.3379 C   0  0  0  0  0  4           0  0  0
    4.0028   -1.2813    0.4175 C   0  0  0  0  0  4           0  0  0
    5.5106    1.2408    0.1639 C   0  0  0  0  0  4           0  0  0
    5.5207   -1.2821    0.2436 C   0  0  0  0  0  4           0  0  0
    6.0001   -0.0411   -0.5034 C   0  0  0  0  0  4           0  0  0
  1  2  2  0     0  0
  1  3  2  0     0  0
  1  7  1  0     0  0
  1 10  1  0     0  0
  4 11  1  0     0  0
  4 20  1  0     0  0
  5 11  2  0     0  0
  5 12  1  0     0  0
  6 12  2  0     0  0
  6 13  1  0     0  0
  8 12  1  0     0  0
  8 14  1  0     0  0
  9 13  1  0     0  0
 10 15  2  0     0  0
 10 16  1  0     0  0
 11 17  1  0     0  0
 13 17  2  0     0  0
 14 18  2  0     0  0
 14 19  1  0     0  0
 15 18  1  0     0  0
 16 19  2  0     0  0
 20 21  1  0     0  0
 21 22  1  0     0  0
 21 23  1  0     0  0
 22 24  1  0     0  0
 23 25  1  0     0  0
 24 26  1  0     0  0
 25 26  1  0     0  0
M  END
> <Compound >
11

> <standard_type>
pIC50

> <# Confs.>
25

> <canonical_smiles>
NC1=CC(OCC2CCCCC2)=NC(NC3=CC=C(S(=O)(N)=O)C=C3)=N1

> <standard_relation>
=

> <predicted_activity_value>
5.566486179335457

> <actual_activity_value>
5.533132379645891

> <Publication ID>
nan

> <standard_units>
nM

> hash
10879493924106730428

$$$$
11_
XXILIB    08252103513D 0   0.00000     0.00000

 26 28  0     1  0            999 V2000
   -1.0030    0.0485    7.9488 S   0  0  2  0  0  6           0  0  0
   -1.6468   -1.0575    8.6302 O   0  0  0  0  0  2           0  0  0
    0.4419    0.1660    7.9205 O   0  0  0  0  0  2           0  0  0
    1.3868    0.0000    0.0000 O   0  0  0  0  0  2           0  0  0
   -0.6847   -0.0000    1.1639 N   0  0  0  0  0  3           0  0  0
   -2.7069    0.0043   -0.0944 N   0  0  0  0  0  3           0  0  0
   -1.6766    1.5157    8.4960 N   0  0  0  0  0  3           0  0  0
   -2.8030    0.0049    2.2606 N   0  0  0  0  0  3           0  0  0
   -2.6687    0.0271   -2.4653 N   0  0  0  0  0  3           0  0  0
   -1.5683    0.0444    6.2780 C   0  0  0  0  0  4           0  0  0
    0.0000    0.0000    0.0000 C   0  0  0  0  0  4           0  0  0
   -2.0355    0.0034    1.0836 C   0  0  0  0  0  4           0  0  0
   -1.9949   -0.0121   -1.2473 C   0  0  0  0  0  4           0  0  0
   -2.4154    0.0035    3.6031 C   0  0  0  0  0  4           0  0  0
   -0.7757    0.6339    5.2962 C   0  0  0  0  0  4           0  0  0
   -2.7705   -0.5740    5.9463 C   0  0  0  0  0  4           0  0  0
   -0.6104   -0.0003   -1.2374 C   0  0  0  0  0  4           0  0  0
   -1.2033    0.6135    3.9673 C   0  0  0  0  0  4           0  0  0
   -3.1895   -0.5910    4.6128 C   0  0  0  0  0  4           0  0  0
    2.0000    0.0000    1.2903 C   0  0  0  0  0  4           0  0  0
    3.5162    0.0000    1.1135 C   0  0  2  0  0  4           0  0  0
    3.9928   -1.2387    0.3379 C   0  0  0  0  0  4           0  0  0
    4.2416    0.0907    2.4657 C   0  0  0  0  0  4           0  0  0
    5.5099   -1.2373    0.1577 C   0  0  0  0  0  4           0  0  0
    5.7590    0.0938    2.2880 C   0  0  0  0  0  4           0  0  0
    6.2333   -1.1212    1.4962 C   0  0  0  0  0  4           0  0  0
  1  2  2  0     0  0
  1  3  2  0     0  0
  1  7  1  0     0  0
  1 10  1  0     0  0
  4 11  1  0     0  0
  4 20  1  0     0  0
  5 11  2  0     0  0
  5 12  1  0     0  0
  6 12  2  0     0  0
  6 13  1  0     0  0
  8 12  1  0     0  0
  8 14  1  0     0  0
  9 13  1  0     0  0
 10 15  2  0     0  0
 10 16  1  0     0  0
 11 17  1  0     0  0
 13 17  2  0     0  0
 14 18  2  0     0  0
 14 19  1  0     0  0
 15 18  1  0     0  0
 16 19  2  0     0  0
 20 21  1  0     0  0
 21 22  1  0     0  0
 21 23  1  0     0  0
 22 24  1  0     0  0
 23 25  1  0     0  0
 24 26  1  0     0  0
 25 26  1  0     0  0
M  END
> <Compound >
11

> <standard_type>
pIC50

> <# Confs.>
25

> <canonical_smiles>
NC1=CC(OCC2CCCCC2)=NC(NC3=CC=C(S(=O)(N)=O)C=C3)=N1

> <standard_relation>
=

> <predicted_activity_value>
5.566486179335457

> <actual_activity_value>
5.533132379645891

> <Publication ID>
nan

> <standard_units>
nM

> hash
10879493924106730428

$$$$
11_
XXILIB    08252103513D 0   0.00000     0.00000

 26 28  0     1  0            999 V2000
   -1.2945   -0.0510    8.0328 S   0  0  2  0  0  6           0  0  0
   -0.3859    1.0540    8.2684 O   0  0  0  0  0  2           0  0  0
   -2.5321   -0.1692    8.7787 O   0  0  0  0  0  2           0  0  0
    1.3868    0.0000    0.0000 O   0  0  0  0  0  2           0  0  0
   -0.6847   -0.0000    1.1639 N   0  0  0  0  0  3           0  0  0
   -2.7069    0.0043   -0.0944 N   0  0  0  0  0  3           0  0  0
   -0.4337   -1.5189    8.1340 N   0  0  0  0  0  3           0  0  0
   -2.8030    0.0049    2.2606 N   0  0  0  0  0  3           0  0  0
   -2.6687    0.0271   -2.4653 N   0  0  0  0  0  3           0  0  0
   -1.7066   -0.0432    6.3178 C   0  0  0  0  0  4           0  0  0
    0.0000    0.0000    0.0000 C   0  0  0  0  0  4           0  0  0
   -2.0355    0.0034    1.0836 C   0  0  0  0  0  4           0  0  0
   -1.9949   -0.0121   -1.2473 C   0  0  0  0  0  4           0  0  0
   -2.4154    0.0035    3.6031 C   0  0  0  0  0  4           0  0  0
   -2.9009   -0.6312    5.9083 C   0  0  0  0  0  4           0  0  0
   -0.8658    0.5766    5.3977 C   0  0  0  0  0  4           0  0  0
   -0.6104   -0.0003   -1.2374 C   0  0  0  0  0  4           0  0  0
   -3.2473   -0.6080    4.5561 C   0  0  0  0  0  4           0  0  0
   -1.2220    0.5965    4.0460 C   0  0  0  0  0  4           0  0  0
    2.0000    0.0000    1.2903 C   0  0  0  0  0  4           0  0  0
    3.5162    0.0000    1.1135 C   0  0  2  0  0  4           0  0  0
    4.2392    0.0000    2.4688 C   0  0  0  0  0  4           0  0  0
    4.0070   -1.1701    0.2424 C   0  0  0  0  0  4           0  0  0
    4.1586   -1.3463    3.1864 C   0  0  0  0  0  4           0  0  0
    3.9312   -2.5183    0.9574 C   0  0  0  0  0  4           0  0  0
    4.6541   -2.4852    2.3005 C   0  0  0  0  0  4           0  0  0
  1  2  2  0     0  0
  1  3  2  0     0  0
  1  7  1  0     0  0
  1 10  1  0     0  0
  4 11  1  0     0  0
  4 20  1  0     0  0
  5 11  2  0     0  0
  5 12  1  0     0  0
  6 12  2  0     0  0
  6 13  1  0     0  0
  8 12  1  0     0  0
  8 14  1  0     0  0
  9 13  1  0     0  0
 10 15  2  0     0  0
 10 16  1  0     0  0
 11 17  1  0     0  0
 13 17  2  0     0  0
 14 18  2  0     0  0
 14 19  1  0     0  0
 15 18  1  0     0  0
 16 19  2  0     0  0
 20 21  1  0     0  0
 21 22  1  0     0  0
 21 23  1  0     0  0
 22 24  1  0     0  0
 23 25  1  0     0  0
 24 26  1  0     0  0
 25 26  1  0     0  0
M  END
> <Compound >
11

> <standard_type>
pIC50

> <# Confs.>
25

> <canonical_smiles>
NC1=CC(OCC2CCCCC2)=NC(NC3=CC=C(S(=O)(N)=O)C=C3)=N1

> <standard_relation>
=

> <predicted_activity_value>
5.566486179335457

> <actual_activity_value>
5.533132379645891

> <Publication ID>
nan

> <standard_units>
nM

> hash
10879493924106730428

$$$$
11_
XXILIB    08252103513D 0   0.00000     0.00000

 26 28  0     1  0            999 V2000
   -1.2945   -0.0510    8.0328 S   0  0  2  0  0  6           0  0  0
   -0.3859    1.0540    8.2684 O   0  0  0  0  0  2           0  0  0
   -2.5321   -0.1692    8.7787 O   0  0  0  0  0  2           0  0  0
    1.3868    0.0000    0.0000 O   0  0  0  0  0  2           0  0  0
   -0.6847   -0.0000    1.1639 N   0  0  0  0  0  3           0  0  0
   -2.7069    0.0043   -0.0944 N   0  0  0  0  0  3           0  0  0
   -0.4337   -1.5189    8.1340 N   0  0  0  0  0  3           0  0  0
   -2.8030    0.0049    2.2606 N   0  0  0  0  0  3           0  0  0
   -2.6687    0.0271   -2.4653 N   0  0  0  0  0  3           0  0  0
   -1.7066   -0.0432    6.3178 C   0  0  0  0  0  4           0  0  0
    0.0000    0.0000    0.0000 C   0  0  0  0  0  4           0  0  0
   -2.0355    0.0034    1.0836 C   0  0  0  0  0  4           0  0  0
   -1.9949   -0.0121   -1.2473 C   0  0  0  0  0  4           0  0  0
   -2.4154    0.0035    3.6031 C   0  0  0  0  0  4           0  0  0
   -2.9009   -0.6312    5.9083 C   0  0  0  0  0  4           0  0  0
   -0.8658    0.5766    5.3977 C   0  0  0  0  0  4           0  0  0
   -0.6104   -0.0003   -1.2374 C   0  0  0  0  0  4           0  0  0
   -3.2473   -0.6080    4.5561 C   0  0  0  0  0  4           0  0  0
   -1.2220    0.5965    4.0460 C   0  0  0  0  0  4           0  0  0
    2.0000    0.0000    1.2903 C   0  0  0  0  0  4           0  0  0
    3.5162    0.0000    1.1135 C   0  0  2  0  0  4           0  0  0
    3.9908    1.2383    0.3384 C   0  0  0  0  0  4           0  0  0
    4.2648   -0.1150    2.4534 C   0  0  0  0  0  4           0  0  0
    3.9230    2.5207    1.1660 C   0  0  0  0  0  4           0  0  0
    4.2023    1.1665    3.2830 C   0  0  0  0  0  4           0  0  0
    4.6757    2.3777    2.4853 C   0  0  0  0  0  4           0  0  0
  1  2  2  0     0  0
  1  3  2  0     0  0
  1  7  1  0     0  0
  1 10  1  0     0  0
  4 11  1  0     0  0
  4 20  1  0     0  0
  5 11  2  0     0  0
  5 12  1  0     0  0
  6 12  2  0     0  0
  6 13  1  0     0  0
  8 12  1  0     0  0
  8 14  1  0     0  0
  9 13  1  0     0  0
 10 15  2  0     0  0
 10 16  1  0     0  0
 11 17  1  0     0  0
 13 17  2  0     0  0
 14 18  2  0     0  0
 14 19  1  0     0  0
 15 18  1  0     0  0
 16 19  2  0     0  0
 20 21  1  0     0  0
 21 22  1  0     0  0
 21 23  1  0     0  0
 22 24  1  0     0  0
 23 25  1  0     0  0
 24 26  1  0     0  0
 25 26  1  0     0  0
M  END
> <Compound >
11

> <standard_type>
pIC50

> <# Confs.>
25

> <canonical_smiles>
NC1=CC(OCC2CCCCC2)=NC(NC3=CC=C(S(=O)(N)=O)C=C3)=N1

> <standard_relation>
=

> <predicted_activity_value>
5.566486179335457

> <actual_activity_value>
5.533132379645891

> <Publication ID>
nan

> <standard_units>
nM

> hash
10879493924106730428

$$$$
11_
XXILIB    08252103513D 0   0.00000     0.00000

 26 28  0     1  0            999 V2000
   -1.0345   -0.1077    7.9577 S   0  0  2  0  0  6           0  0  0
   -2.2099    0.0384    8.7939 O   0  0  0  0  0  2           0  0  0
   -0.1626   -1.2581    8.0935 O   0  0  0  0  0  2           0  0  0
    1.3868    0.0000    0.0000 O   0  0  0  0  0  2           0  0  0
   -0.6847   -0.0000    1.1639 N   0  0  0  0  0  3           0  0  0
   -2.7069    0.0043   -0.0944 N   0  0  0  0  0  3           0  0  0
   -0.1032    1.3176    8.0416 N   0  0  0  0  0  3           0  0  0
   -2.8030    0.0049    2.2606 N   0  0  0  0  0  3           0  0  0
   -2.6687    0.0271   -2.4653 N   0  0  0  0  0  3           0  0  0
   -1.5664   -0.0398    6.2774 C   0  0  0  0  0  4           0  0  0
    0.0000    0.0000   -0.0000 C   0  0  0  0  0  4           0  0  0
   -2.0355    0.0034    1.0836 C   0  0  0  0  0  4           0  0  0
   -1.9949   -0.0121   -1.2473 C   0  0  0  0  0  4           0  0  0
   -2.4154    0.0035    3.6031 C   0  0  0  0  0  4           0  0  0
   -0.7810   -0.6400    5.2963 C   0  0  0  0  0  4           0  0  0
   -2.7727    0.5719    5.9482 C   0  0  0  0  0  4           0  0  0
   -0.6104   -0.0003   -1.2374 C   0  0  0  0  0  4           0  0  0
   -1.2064   -0.6129    3.9669 C   0  0  0  0  0  4           0  0  0
   -3.1914    0.5924    4.6146 C   0  0  0  0  0  4           0  0  0
    2.0000    0.0000    1.2903 C   0  0  0  0  0  4           0  0  0
    3.5162    0.0000    1.1135 C   0  0  2  0  0  4           0  0  0
    3.9928   -1.2387    0.3379 C   0  0  0  0  0  4           0  0  0
    4.2416    0.0907    2.4657 C   0  0  0  0  0  4           0  0  0
    5.5099   -1.2373    0.1577 C   0  0  0  0  0  4           0  0  0
    5.7590    0.0938    2.2880 C   0  0  0  0  0  4           0  0  0
    6.2333   -1.1212    1.4962 C   0  0  0  0  0  4           0  0  0
  1  2  2  0     0  0
  1  3  2  0     0  0
  1  7  1  0     0  0
  1 10  1  0     0  0
  4 11  1  0     0  0
  4 20  1  0     0  0
  5 11  2  0     0  0
  5 12  1  0     0  0
  6 12  2  0     0  0
  6 13  1  0     0  0
  8 12  1  0     0  0
  8 14  1  0     0  0
  9 13  1  0     0  0
 10 15  2  0     0  0
 10 16  1  0     0  0
 11 17  1  0     0  0
 13 17  2  0     0  0
 14 18  2  0     0  0
 14 19  1  0     0  0
 15 18  1  0     0  0
 16 19  2  0     0  0
 20 21  1  0     0  0
 21 22  1  0     0  0
 21 23  1  0     0  0
 22 24  1  0     0  0
 23 25  1  0     0  0
 24 26  1  0     0  0
 25 26  1  0     0  0
M  END
> <Compound >
11

> <standard_type>
pIC50

> <# Confs.>
25

> <canonical_smiles>
NC1=CC(OCC2CCCCC2)=NC(NC3=CC=C(S(=O)(N)=O)C=C3)=N1

> <standard_relation>
=

> <predicted_activity_value>
5.566486179335457

> <actual_activity_value>
5.533132379645891

> <Publication ID>
nan

> <standard_units>
nM

> hash
10879493924106730428

$$$$
11_
XXILIB    08252103513D 0   0.00000     0.00000

 26 28  0     1  0            999 V2000
   -1.0030    0.0485    7.9488 S   0  0  2  0  0  6           0  0  0
   -1.6468   -1.0575    8.6302 O   0  0  0  0  0  2           0  0  0
    0.4419    0.1660    7.9205 O   0  0  0  0  0  2           0  0  0
    1.3868    0.0000    0.0000 O   0  0  0  0  0  2           0  0  0
   -0.6847   -0.0000    1.1639 N   0  0  0  0  0  3           0  0  0
   -2.7069    0.0043   -0.0944 N   0  0  0  0  0  3           0  0  0
   -1.6766    1.5157    8.4960 N   0  0  0  0  0  3           0  0  0
   -2.8030    0.0049    2.2606 N   0  0  0  0  0  3           0  0  0
   -2.6687    0.0271   -2.4653 N   0  0  0  0  0  3           0  0  0
   -1.5683    0.0444    6.2780 C   0  0  0  0  0  4           0  0  0
    0.0000    0.0000    0.0000 C   0  0  0  0  0  4           0  0  0
   -2.0355    0.0034    1.0836 C   0  0  0  0  0  4           0  0  0
   -1.9949   -0.0121   -1.2473 C   0  0  0  0  0  4           0  0  0
   -2.4154    0.0035    3.6031 C   0  0  0  0  0  4           0  0  0
   -0.7757    0.6339    5.2962 C   0  0  0  0  0  4           0  0  0
   -2.7705   -0.5740    5.9463 C   0  0  0  0  0  4           0  0  0
   -0.6104   -0.0003   -1.2374 C   0  0  0  0  0  4           0  0  0
   -1.2033    0.6135    3.9673 C   0  0  0  0  0  4           0  0  0
   -3.1895   -0.5910    4.6128 C   0  0  0  0  0  4           0  0  0
    2.0000    0.0000    1.2903 C   0  0  0  0  0  4           0  0  0
    3.5162    0.0000    1.1135 C   0  0  2  0  0  4           0  0  0
    4.2412    0.0000    2.4690 C   0  0  0  0  0  4           0  0  0
    3.9846    1.1906    0.2614 C   0  0  0  0  0  4           0  0  0
    5.7587   -0.0036    2.2925 C   0  0  0  0  0  4           0  0  0
    5.5018    1.1883    0.0823 C   0  0  0  0  0  4           0  0  0
    6.2250    1.1623    1.4256 C   0  0  0  0  0  4           0  0  0
  1  2  2  0     0  0
  1  3  2  0     0  0
  1  7  1  0     0  0
  1 10  1  0     0  0
  4 11  1  0     0  0
  4 20  1  0     0  0
  5 11  2  0     0  0
  5 12  1  0     0  0
  6 12  2  0     0  0
  6 13  1  0     0  0
  8 12  1  0     0  0
  8 14  1  0     0  0
  9 13  1  0     0  0
 10 15  2  0     0  0
 10 16  1  0     0  0
 11 17  1  0     0  0
 13 17  2  0     0  0
 14 18  2  0     0  0
 14 19  1  0     0  0
 15 18  1  0     0  0
 16 19  2  0     0  0
 20 21  1  0     0  0
 21 22  1  0     0  0
 21 23  1  0     0  0
 22 24  1  0     0  0
 23 25  1  0     0  0
 24 26  1  0     0  0
 25 26  1  0     0  0
M  END
> <Compound >
11

> <standard_type>
pIC50

> <# Confs.>
25

> <canonical_smiles>
NC1=CC(OCC2CCCCC2)=NC(NC3=CC=C(S(=O)(N)=O)C=C3)=N1

> <standard_relation>
=

> <predicted_activity_value>
5.566486179335457

> <actual_activity_value>
5.533132379645891

> <Publication ID>
nan

> <standard_units>
nM

> hash
10879493924106730428

$$$$
11_
XXILIB    08252103513D 0   0.00000     0.00000

 26 28  0     1  0            999 V2000
   -1.2630    0.1052    8.0239 S   0  0  2  0  0  6           0  0  0
    0.1771   -0.0418    8.1047 O   0  0  0  0  0  2           0  0  0
   -1.9277    1.2549    8.6058 O   0  0  0  0  0  2           0  0  0
    1.3868    0.0000    0.0000 O   0  0  0  0  0  2           0  0  0
   -0.6847   -0.0000    1.1639 N   0  0  0  0  0  3           0  0  0
   -2.7069    0.0043   -0.0944 N   0  0  0  0  0  3           0  0  0
   -2.0070   -1.3207    8.5884 N   0  0  0  0  0  3           0  0  0
   -2.8030    0.0049    2.2606 N   0  0  0  0  0  3           0  0  0
   -2.6687    0.0271   -2.4653 N   0  0  0  0  0  3           0  0  0
   -1.7085    0.0410    6.3185 C   0  0  0  0  0  4           0  0  0
   -0.0000    0.0000    0.0000 C   0  0  0  0  0  4           0  0  0
   -2.0355    0.0034    1.0836 C   0  0  0  0  0  4           0  0  0
   -1.9949   -0.0121   -1.2473 C   0  0  0  0  0  4           0  0  0
   -2.4154    0.0035    3.6031 C   0  0  0  0  0  4           0  0  0
   -2.8956    0.6427    5.9082 C   0  0  0  0  0  4           0  0  0
   -0.8635   -0.5694    5.3958 C   0  0  0  0  0  4           0  0  0
   -0.6104   -0.0003   -1.2374 C   0  0  0  0  0  4           0  0  0
   -3.2442    0.6185    4.5565 C   0  0  0  0  0  4           0  0  0
   -1.2201   -0.5870    4.0442 C   0  0  0  0  0  4           0  0  0
    2.0000    0.0000    1.2903 C   0  0  0  0  0  4           0  0  0
    3.5162    0.0000    1.1135 C   0  0  2  0  0  4           0  0  0
    4.2392    0.0000    2.4688 C   0  0  0  0  0  4           0  0  0
    4.0070   -1.1701    0.2424 C   0  0  0  0  0  4           0  0  0
    4.1586   -1.3463    3.1864 C   0  0  0  0  0  4           0  0  0
    3.9312   -2.5183    0.9574 C   0  0  0  0  0  4           0  0  0
    4.6541   -2.4852    2.3005 C   0  0  0  0  0  4           0  0  0
  1  2  2  0     0  0
  1  3  2  0     0  0
  1  7  1  0     0  0
  1 10  1  0     0  0
  4 11  1  0     0  0
  4 20  1  0     0  0
  5 11  2  0     0  0
  5 12  1  0     0  0
  6 12  2  0     0  0
  6 13  1  0     0  0
  8 12  1  0     0  0
  8 14  1  0     0  0
  9 13  1  0     0  0
 10 15  2  0     0  0
 10 16  1  0     0  0
 11 17  1  0     0  0
 13 17  2  0     0  0
 14 18  2  0     0  0
 14 19  1  0     0  0
 15 18  1  0     0  0
 16 19  2  0     0  0
 20 21  1  0     0  0
 21 22  1  0     0  0
 21 23  1  0     0  0
 22 24  1  0     0  0
 23 25  1  0     0  0
 24 26  1  0     0  0
 25 26  1  0     0  0
M  END
> <Compound >
11

> <standard_type>
pIC50

> <# Confs.>
25

> <canonical_smiles>
NC1=CC(OCC2CCCCC2)=NC(NC3=CC=C(S(=O)(N)=O)C=C3)=N1

> <standard_relation>
=

> <predicted_activity_value>
5.566486179335457

> <actual_activity_value>
5.533132379645891

> <Publication ID>
nan

> <standard_units>
nM

> hash
10879493924106730428

$$$$
11_
XXILIB    08252103513D 0   0.00000     0.00000

 26 28  0     1  0            999 V2000
   -1.0030    0.0485    7.9488 S   0  0  2  0  0  6           0  0  0
   -1.6468   -1.0575    8.6302 O   0  0  0  0  0  2           0  0  0
    0.4419    0.1660    7.9205 O   0  0  0  0  0  2           0  0  0
    1.3868    0.0000    0.0000 O   0  0  0  0  0  2           0  0  0
   -0.6847   -0.0000    1.1639 N   0  0  0  0  0  3           0  0  0
   -2.7069    0.0043   -0.0944 N   0  0  0  0  0  3           0  0  0
   -1.6766    1.5157    8.4960 N   0  0  0  0  0  3           0  0  0
   -2.8030    0.0049    2.2606 N   0  0  0  0  0  3           0  0  0
   -2.6687    0.0271   -2.4653 N   0  0  0  0  0  3           0  0  0
   -1.5683    0.0444    6.2780 C   0  0  0  0  0  4           0  0  0
    0.0000    0.0000    0.0000 C   0  0  0  0  0  4           0  0  0
   -2.0355    0.0034    1.0836 C   0  0  0  0  0  4           0  0  0
   -1.9949   -0.0121   -1.2473 C   0  0  0  0  0  4           0  0  0
   -2.4154    0.0035    3.6031 C   0  0  0  0  0  4           0  0  0
   -0.7757    0.6339    5.2962 C   0  0  0  0  0  4           0  0  0
   -2.7705   -0.5740    5.9463 C   0  0  0  0  0  4           0  0  0
   -0.6104   -0.0003   -1.2374 C   0  0  0  0  0  4           0  0  0
   -1.2033    0.6135    3.9673 C   0  0  0  0  0  4           0  0  0
   -3.1895   -0.5910    4.6128 C   0  0  0  0  0  4           0  0  0
    2.0000    0.0000    1.2903 C   0  0  0  0  0  4           0  0  0
    3.5162    0.0000    1.1135 C   0  0  2  0  0  4           0  0  0
    3.9928    1.2387    0.3379 C   0  0  0  0  0  4           0  0  0
    4.0028   -1.2813    0.4175 C   0  0  0  0  0  4           0  0  0
    5.5106    1.2408    0.1639 C   0  0  0  0  0  4           0  0  0
    5.5207   -1.2821    0.2436 C   0  0  0  0  0  4           0  0  0
    6.0001   -0.0411   -0.5034 C   0  0  0  0  0  4           0  0  0
  1  2  2  0     0  0
  1  3  2  0     0  0
  1  7  1  0     0  0
  1 10  1  0     0  0
  4 11  1  0     0  0
  4 20  1  0     0  0
  5 11  2  0     0  0
  5 12  1  0     0  0
  6 12  2  0     0  0
  6 13  1  0     0  0
  8 12  1  0     0  0
  8 14  1  0     0  0
  9 13  1  0     0  0
 10 15  2  0     0  0
 10 16  1  0     0  0
 11 17  1  0     0  0
 13 17  2  0     0  0
 14 18  2  0     0  0
 14 19  1  0     0  0
 15 18  1  0     0  0
 16 19  2  0     0  0
 20 21  1  0     0  0
 21 22  1  0     0  0
 21 23  1  0     0  0
 22 24  1  0     0  0
 23 25  1  0     0  0
 24 26  1  0     0  0
 25 26  1  0     0  0
M  END
> <Compound >
11

> <standard_type>
pIC50

> <# Confs.>
25

> <canonical_smiles>
NC1=CC(OCC2CCCCC2)=NC(NC3=CC=C(S(=O)(N)=O)C=C3)=N1

> <standard_relation>
=

> <predicted_activity_value>
5.566486179335457

> <actual_activity_value>
5.533132379645891

> <Publication ID>
nan

> <standard_units>
nM

> hash
10879493924106730428

$$$$
11_
XXILIB    08252103513D 0   0.00000     0.00000

 26 28  0     1  0            999 V2000
   -1.0345   -0.1077    7.9577 S   0  0  2  0  0  6           0  0  0
   -2.2099    0.0384    8.7939 O   0  0  0  0  0  2           0  0  0
   -0.1626   -1.2581    8.0935 O   0  0  0  0  0  2           0  0  0
    1.3868    0.0000    0.0000 O   0  0  0  0  0  2           0  0  0
   -0.6847   -0.0000    1.1639 N   0  0  0  0  0  3           0  0  0
   -2.7069    0.0043   -0.0944 N   0  0  0  0  0  3           0  0  0
   -0.1032    1.3176    8.0416 N   0  0  0  0  0  3           0  0  0
   -2.8030    0.0049    2.2606 N   0  0  0  0  0  3           0  0  0
   -2.6687    0.0271   -2.4653 N   0  0  0  0  0  3           0  0  0
   -1.5664   -0.0398    6.2774 C   0  0  0  0  0  4           0  0  0
    0.0000    0.0000   -0.0000 C   0  0  0  0  0  4           0  0  0
   -2.0355    0.0034    1.0836 C   0  0  0  0  0  4           0  0  0
   -1.9949   -0.0121   -1.2473 C   0  0  0  0  0  4           0  0  0
   -2.4154    0.0035    3.6031 C   0  0  0  0  0  4           0  0  0
   -0.7810   -0.6400    5.2963 C   0  0  0  0  0  4           0  0  0
   -2.7727    0.5719    5.9482 C   0  0  0  0  0  4           0  0  0
   -0.6104   -0.0003   -1.2374 C   0  0  0  0  0  4           0  0  0
   -1.2064   -0.6129    3.9669 C   0  0  0  0  0  4           0  0  0
   -3.1914    0.5924    4.6146 C   0  0  0  0  0  4           0  0  0
    2.0000    0.0000    1.2903 C   0  0  0  0  0  4           0  0  0
    3.5162    0.0000    1.1135 C   0  0  2  0  0  4           0  0  0
    4.2412    0.0000    2.4690 C   0  0  0  0  0  4           0  0  0
    3.9846    1.1906    0.2614 C   0  0  0  0  0  4           0  0  0
    5.7587   -0.0036    2.2925 C   0  0  0  0  0  4           0  0  0
    5.5018    1.1883    0.0823 C   0  0  0  0  0  4           0  0  0
    6.2250    1.1623    1.4256 C   0  0  0  0  0  4           0  0  0
  1  2  2  0     0  0
  1  3  2  0     0  0
  1  7  1  0     0  0
  1 10  1  0     0  0
  4 11  1  0     0  0
  4 20  1  0     0  0
  5 11  2  0     0  0
  5 12  1  0     0  0
  6 12  2  0     0  0
  6 13  1  0     0  0
  8 12  1  0     0  0
  8 14  1  0     0  0
  9 13  1  0     0  0
 10 15  2  0     0  0
 10 16  1  0     0  0
 11 17  1  0     0  0
 13 17  2  0     0  0
 14 18  2  0     0  0
 14 19  1  0     0  0
 15 18  1  0     0  0
 16 19  2  0     0  0
 20 21  1  0     0  0
 21 22  1  0     0  0
 21 23  1  0     0  0
 22 24  1  0     0  0
 23 25  1  0     0  0
 24 26  1  0     0  0
 25 26  1  0     0  0
M  END
> <Compound >
11

> <standard_type>
pIC50

> <# Confs.>
25

> <canonical_smiles>
NC1=CC(OCC2CCCCC2)=NC(NC3=CC=C(S(=O)(N)=O)C=C3)=N1

> <standard_relation>
=

> <predicted_activity_value>
5.566486179335457

> <actual_activity_value>
5.533132379645891

> <Publication ID>
nan

> <standard_units>
nM

> hash
10879493924106730428

$$$$
11_
XXILIB    08252103513D 0   0.00000     0.00000

 26 28  0     1  0            999 V2000
   -1.2630    0.1052    8.0239 S   0  0  2  0  0  6           0  0  0
    0.1771   -0.0418    8.1047 O   0  0  0  0  0  2           0  0  0
   -1.9277    1.2549    8.6058 O   0  0  0  0  0  2           0  0  0
    1.3868    0.0000    0.0000 O   0  0  0  0  0  2           0  0  0
   -0.6847   -0.0000    1.1639 N   0  0  0  0  0  3           0  0  0
   -2.7069    0.0043   -0.0944 N   0  0  0  0  0  3           0  0  0
   -2.0070   -1.3207    8.5884 N   0  0  0  0  0  3           0  0  0
   -2.8030    0.0049    2.2606 N   0  0  0  0  0  3           0  0  0
   -2.6687    0.0271   -2.4653 N   0  0  0  0  0  3           0  0  0
   -1.7085    0.0410    6.3185 C   0  0  0  0  0  4           0  0  0
   -0.0000    0.0000    0.0000 C   0  0  0  0  0  4           0  0  0
   -2.0355    0.0034    1.0836 C   0  0  0  0  0  4           0  0  0
   -1.9949   -0.0121   -1.2473 C   0  0  0  0  0  4           0  0  0
   -2.4154    0.0035    3.6031 C   0  0  0  0  0  4           0  0  0
   -2.8956    0.6427    5.9082 C   0  0  0  0  0  4           0  0  0
   -0.8635   -0.5694    5.3958 C   0  0  0  0  0  4           0  0  0
   -0.6104   -0.0003   -1.2374 C   0  0  0  0  0  4           0  0  0
   -3.2442    0.6185    4.5565 C   0  0  0  0  0  4           0  0  0
   -1.2201   -0.5870    4.0442 C   0  0  0  0  0  4           0  0  0
    2.0000    0.0000    1.2903 C   0  0  0  0  0  4           0  0  0
    3.5162    0.0000    1.1135 C   0  0  2  0  0  4           0  0  0
    3.9908    1.2383    0.3384 C   0  0  0  0  0  4           0  0  0
    4.2648   -0.1150    2.4534 C   0  0  0  0  0  4           0  0  0
    3.9230    2.5207    1.1660 C   0  0  0  0  0  4           0  0  0
    4.2023    1.1665    3.2830 C   0  0  0  0  0  4           0  0  0
    4.6757    2.3777    2.4853 C   0  0  0  0  0  4           0  0  0
  1  2  2  0     0  0
  1  3  2  0     0  0
  1  7  1  0     0  0
  1 10  1  0     0  0
  4 11  1  0     0  0
  4 20  1  0     0  0
  5 11  2  0     0  0
  5 12  1  0     0  0
  6 12  2  0     0  0
  6 13  1  0     0  0
  8 12  1  0     0  0
  8 14  1  0     0  0
  9 13  1  0     0  0
 10 15  2  0     0  0
 10 16  1  0     0  0
 11 17  1  0     0  0
 13 17  2  0     0  0
 14 18  2  0     0  0
 14 19  1  0     0  0
 15 18  1  0     0  0
 16 19  2  0     0  0
 20 21  1  0     0  0
 21 22  1  0     0  0
 21 23  1  0     0  0
 22 24  1  0     0  0
 23 25  1  0     0  0
 24 26  1  0     0  0
 25 26  1  0     0  0
M  END
> <Compound >
11

> <standard_type>
pIC50

> <# Confs.>
25

> <canonical_smiles>
NC1=CC(OCC2CCCCC2)=NC(NC3=CC=C(S(=O)(N)=O)C=C3)=N1

> <standard_relation>
=

> <predicted_activity_value>
5.566486179335457

> <actual_activity_value>
5.533132379645891

> <Publication ID>
nan

> <standard_units>
nM

> hash
10879493924106730428

$$$$
11_
XXILIB    08252103513D 0   0.00000     0.00000

 26 28  0     1  0            999 V2000
   -1.0345   -0.1077    7.9577 S   0  0  2  0  0  6           0  0  0
   -2.2099    0.0384    8.7939 O   0  0  0  0  0  2           0  0  0
   -0.1626   -1.2581    8.0935 O   0  0  0  0  0  2           0  0  0
    1.3868    0.0000    0.0000 O   0  0  0  0  0  2           0  0  0
   -0.6847   -0.0000    1.1639 N   0  0  0  0  0  3           0  0  0
   -2.7069    0.0043   -0.0944 N   0  0  0  0  0  3           0  0  0
   -0.1032    1.3176    8.0416 N   0  0  0  0  0  3           0  0  0
   -2.8030    0.0049    2.2606 N   0  0  0  0  0  3           0  0  0
   -2.6687    0.0271   -2.4653 N   0  0  0  0  0  3           0  0  0
   -1.5664   -0.0398    6.2774 C   0  0  0  0  0  4           0  0  0
    0.0000    0.0000   -0.0000 C   0  0  0  0  0  4           0  0  0
   -2.0355    0.0034    1.0836 C   0  0  0  0  0  4           0  0  0
   -1.9949   -0.0121   -1.2473 C   0  0  0  0  0  4           0  0  0
   -2.4154    0.0035    3.6031 C   0  0  0  0  0  4           0  0  0
   -0.7810   -0.6400    5.2963 C   0  0  0  0  0  4           0  0  0
   -2.7727    0.5719    5.9482 C   0  0  0  0  0  4           0  0  0
   -0.6104   -0.0003   -1.2374 C   0  0  0  0  0  4           0  0  0
   -1.2064   -0.6129    3.9669 C   0  0  0  0  0  4           0  0  0
   -3.1914    0.5924    4.6146 C   0  0  0  0  0  4           0  0  0
    2.0000    0.0000    1.2903 C   0  0  0  0  0  4           0  0  0
    3.5162    0.0000    1.1135 C   0  0  2  0  0  4           0  0  0
    3.9928    1.2387    0.3379 C   0  0  0  0  0  4           0  0  0
    4.0028   -1.2813    0.4175 C   0  0  0  0  0  4           0  0  0
    5.5106    1.2408    0.1639 C   0  0  0  0  0  4           0  0  0
    5.5207   -1.2821    0.2436 C   0  0  0  0  0  4           0  0  0
    6.0001   -0.0411   -0.5034 C   0  0  0  0  0  4           0  0  0
  1  2  2  0     0  0
  1  3  2  0     0  0
  1  7  1  0     0  0
  1 10  1  0     0  0
  4 11  1  0     0  0
  4 20  1  0     0  0
  5 11  2  0     0  0
  5 12  1  0     0  0
  6 12  2  0     0  0
  6 13  1  0     0  0
  8 12  1  0     0  0
  8 14  1  0     0  0
  9 13  1  0     0  0
 10 15  2  0     0  0
 10 16  1  0     0  0
 11 17  1  0     0  0
 13 17  2  0     0  0
 14 18  2  0     0  0
 14 19  1  0     0  0
 15 18  1  0     0  0
 16 19  2  0     0  0
 20 21  1  0     0  0
 21 22  1  0     0  0
 21 23  1  0     0  0
 22 24  1  0     0  0
 23 25  1  0     0  0
 24 26  1  0     0  0
 25 26  1  0     0  0
M  END
> <Compound >
11

> <standard_type>
pIC50

> <# Confs.>
25

> <canonical_smiles>
NC1=CC(OCC2CCCCC2)=NC(NC3=CC=C(S(=O)(N)=O)C=C3)=N1

> <standard_relation>
=

> <predicted_activity_value>
5.566486179335457

> <actual_activity_value>
5.533132379645891

> <Publication ID>
nan

> <standard_units>
nM

> hash
10879493924106730428

$$$$
11_
XXILIB    08252103513D 0   0.00000     0.00000

 26 28  0     1  0            999 V2000
   -8.6932    0.0695    3.2087 S   0  0  2  0  0  6           0  0  0
   -9.2766   -1.0362    2.4744 O   0  0  0  0  0  2           0  0  0
   -8.8763    0.1905    4.6418 O   0  0  0  0  0  2           0  0  0
    1.3868    0.0000    0.0000 O   0  0  0  0  0  2           0  0  0
   -0.6847    0.0000    1.1639 N   0  0  0  0  0  3           0  0  0
   -2.7069    0.0043   -0.0944 N   0  0  0  0  0  3           0  0  0
   -9.1312    1.5365    2.4592 N   0  0  0  0  0  3           0  0  0
   -2.8030    0.0049    2.2606 N   0  0  0  0  0  3           0  0  0
   -2.6687    0.0271   -2.4653 N   0  0  0  0  0  3           0  0  0
   -6.9577    0.0591    2.8939 C   0  0  0  0  0  4           0  0  0
    0.0000    0.0000    0.0000 C   0  0  0  0  0  4           0  0  0
   -2.0355    0.0034    1.0836 C   0  0  0  0  0  4           0  0  0
   -1.9949   -0.0121   -1.2473 C   0  0  0  0  0  4           0  0  0
   -4.1878    0.0083    2.4475 C   0  0  0  0  0  4           0  0  0
   -6.1005    0.6477    3.8205 C   0  0  0  0  0  4           0  0  0
   -6.4556   -0.5633    1.7546 C   0  0  0  0  0  4           0  0  0
   -0.6104   -0.0003   -1.2374 C   0  0  0  0  0  4           0  0  0
   -4.7235    0.6225    3.5920 C   0  0  0  0  0  4           0  0  0
   -5.0752   -0.5852    1.5352 C   0  0  0  0  0  4           0  0  0
    2.0000    0.0000    1.2903 C   0  0  0  0  0  4           0  0  0
    3.5162    0.0000    1.1135 C   0  0  2  0  0  4           0  0  0
    3.9928   -1.2387    0.3379 C   0  0  0  0  0  4           0  0  0
    4.2416    0.0907    2.4657 C   0  0  0  0  0  4           0  0  0
    5.5099   -1.2373    0.1577 C   0  0  0  0  0  4           0  0  0
    5.7590    0.0938    2.2880 C   0  0  0  0  0  4           0  0  0
    6.2333   -1.1212    1.4962 C   0  0  0  0  0  4           0  0  0
  1  2  2  0     0  0
  1  3  2  0     0  0
  1  7  1  0     0  0
  1 10  1  0     0  0
  4 11  1  0     0  0
  4 20  1  0     0  0
  5 11  2  0     0  0
  5 12  1  0     0  0
  6 12  2  0     0  0
  6 13  1  0     0  0
  8 12  1  0     0  0
  8 14  1  0     0  0
  9 13  1  0     0  0
 10 15  2  0     0  0
 10 16  1  0     0  0
 11 17  1  0     0  0
 13 17  2  0     0  0
 14 18  2  0     0  0
 14 19  1  0     0  0
 15 18  1  0     0  0
 16 19  2  0     0  0
 20 21  1  0     0  0
 21 22  1  0     0  0
 21 23  1  0     0  0
 22 24  1  0     0  0
 23 25  1  0     0  0
 24 26  1  0     0  0
 25 26  1  0     0  0
M  END
> <Compound >
11

> <standard_type>
pIC50

> <# Confs.>
25

> <canonical_smiles>
NC1=CC(OCC2CCCCC2)=NC(NC3=CC=C(S(=O)(N)=O)C=C3)=N1

> <standard_relation>
=

> <predicted_activity_value>
5.566486179335457

> <actual_activity_value>
5.533132379645891

> <Publication ID>
nan

> <standard_units>
nM

> hash
10879493924106730428

$$$$
11_
XXILIB    08252103513D 0   0.00000     0.00000

 26 28  0     1  0            999 V2000
   -8.6979   -0.0868    3.1765 S   0  0  2  0  0  6           0  0  0
   -9.3526    0.0587    1.8911 O   0  0  0  0  0  2           0  0  0
   -8.9635   -1.2347    4.0215 O   0  0  0  0  0  2           0  0  0
    1.3868    0.0000    0.0000 O   0  0  0  0  0  2           0  0  0
   -0.6847    0.0000    1.1639 N   0  0  0  0  0  3           0  0  0
   -2.7069    0.0043   -0.0944 N   0  0  0  0  0  3           0  0  0
   -8.9126    1.3411    4.0825 N   0  0  0  0  0  3           0  0  0
   -2.8030    0.0049    2.2606 N   0  0  0  0  0  3           0  0  0
   -2.6687    0.0271   -2.4653 N   0  0  0  0  0  3           0  0  0
   -6.9576   -0.0251    2.8961 C   0  0  0  0  0  4           0  0  0
    0.0000    0.0000    0.0000 C   0  0  0  0  0  4           0  0  0
   -2.0355    0.0034    1.0836 C   0  0  0  0  0  4           0  0  0
   -1.9949   -0.0121   -1.2473 C   0  0  0  0  0  4           0  0  0
   -4.1878    0.0083    2.4475 C   0  0  0  0  0  4           0  0  0
   -6.1040   -0.6262    3.8179 C   0  0  0  0  0  4           0  0  0
   -6.4535    0.5826    1.7497 C   0  0  0  0  0  4           0  0  0
   -0.6104   -0.0003   -1.2374 C   0  0  0  0  0  4           0  0  0
   -4.7265   -0.6039    3.5916 C   0  0  0  0  0  4           0  0  0
   -5.0729    0.5982    1.5306 C   0  0  0  0  0  4           0  0  0
    2.0000    0.0000    1.2903 C   0  0  0  0  0  4           0  0  0
    3.5162    0.0000    1.1135 C   0  0  2  0  0  4           0  0  0
    3.9928   -1.2387    0.3379 C   0  0  0  0  0  4           0  0  0
    4.2416    0.0907    2.4657 C   0  0  0  0  0  4           0  0  0
    5.5099   -1.2373    0.1577 C   0  0  0  0  0  4           0  0  0
    5.7590    0.0938    2.2880 C   0  0  0  0  0  4           0  0  0
    6.2333   -1.1212    1.4962 C   0  0  0  0  0  4           0  0  0
  1  2  2  0     0  0
  1  3  2  0     0  0
  1  7  1  0     0  0
  1 10  1  0     0  0
  4 11  1  0     0  0
  4 20  1  0     0  0
  5 11  2  0     0  0
  5 12  1  0     0  0
  6 12  2  0     0  0
  6 13  1  0     0  0
  8 12  1  0     0  0
  8 14  1  0     0  0
  9 13  1  0     0  0
 10 15  2  0     0  0
 10 16  1  0     0  0
 11 17  1  0     0  0
 13 17  2  0     0  0
 14 18  2  0     0  0
 14 19  1  0     0  0
 15 18  1  0     0  0
 16 19  2  0     0  0
 20 21  1  0     0  0
 21 22  1  0     0  0
 21 23  1  0     0  0
 22 24  1  0     0  0
 23 25  1  0     0  0
 24 26  1  0     0  0
 25 26  1  0     0  0
M  END
> <Compound >
11

> <standard_type>
pIC50

> <# Confs.>
25

> <canonical_smiles>
NC1=CC(OCC2CCCCC2)=NC(NC3=CC=C(S(=O)(N)=O)C=C3)=N1

> <standard_relation>
=

> <predicted_activity_value>
5.566486179335457

> <actual_activity_value>
5.533132379645891

> <Publication ID>
nan

> <standard_units>
nM

> hash
10879493924106730428

$$$$
11_
XXILIB    08252103513D 0   0.00000     0.00000

 26 28  0     1  0            999 V2000
   -8.6932    0.0695    3.2087 S   0  0  2  0  0  6           0  0  0
   -9.2766   -1.0362    2.4744 O   0  0  0  0  0  2           0  0  0
   -8.8763    0.1905    4.6418 O   0  0  0  0  0  2           0  0  0
    1.3868    0.0000    0.0000 O   0  0  0  0  0  2           0  0  0
   -0.6847    0.0000    1.1639 N   0  0  0  0  0  3           0  0  0
   -2.7069    0.0043   -0.0944 N   0  0  0  0  0  3           0  0  0
   -9.1312    1.5365    2.4592 N   0  0  0  0  0  3           0  0  0
   -2.8030    0.0049    2.2606 N   0  0  0  0  0  3           0  0  0
   -2.6687    0.0271   -2.4653 N   0  0  0  0  0  3           0  0  0
   -6.9577    0.0591    2.8939 C   0  0  0  0  0  4           0  0  0
    0.0000    0.0000    0.0000 C   0  0  0  0  0  4           0  0  0
   -2.0355    0.0034    1.0836 C   0  0  0  0  0  4           0  0  0
   -1.9949   -0.0121   -1.2473 C   0  0  0  0  0  4           0  0  0
   -4.1878    0.0083    2.4475 C   0  0  0  0  0  4           0  0  0
   -6.1005    0.6477    3.8205 C   0  0  0  0  0  4           0  0  0
   -6.4556   -0.5633    1.7546 C   0  0  0  0  0  4           0  0  0
   -0.6104   -0.0003   -1.2374 C   0  0  0  0  0  4           0  0  0
   -4.7235    0.6225    3.5920 C   0  0  0  0  0  4           0  0  0
   -5.0752   -0.5852    1.5352 C   0  0  0  0  0  4           0  0  0
    2.0000    0.0000    1.2903 C   0  0  0  0  0  4           0  0  0
    3.5162    0.0000    1.1135 C   0  0  2  0  0  4           0  0  0
    4.2412    0.0000    2.4690 C   0  0  0  0  0  4           0  0  0
    3.9846    1.1906    0.2614 C   0  0  0  0  0  4           0  0  0
    5.7587   -0.0036    2.2925 C   0  0  0  0  0  4           0  0  0
    5.5018    1.1883    0.0823 C   0  0  0  0  0  4           0  0  0
    6.2250    1.1623    1.4256 C   0  0  0  0  0  4           0  0  0
  1  2  2  0     0  0
  1  3  2  0     0  0
  1  7  1  0     0  0
  1 10  1  0     0  0
  4 11  1  0     0  0
  4 20  1  0     0  0
  5 11  2  0     0  0
  5 12  1  0     0  0
  6 12  2  0     0  0
  6 13  1  0     0  0
  8 12  1  0     0  0
  8 14  1  0     0  0
  9 13  1  0     0  0
 10 15  2  0     0  0
 10 16  1  0     0  0
 11 17  1  0     0  0
 13 17  2  0     0  0
 14 18  2  0     0  0
 14 19  1  0     0  0
 15 18  1  0     0  0
 16 19  2  0     0  0
 20 21  1  0     0  0
 21 22  1  0     0  0
 21 23  1  0     0  0
 22 24  1  0     0  0
 23 25  1  0     0  0
 24 26  1  0     0  0
 25 26  1  0     0  0
M  END
> <Compound >
11

> <standard_type>
pIC50

> <# Confs.>
25

> <canonical_smiles>
NC1=CC(OCC2CCCCC2)=NC(NC3=CC=C(S(=O)(N)=O)C=C3)=N1

> <standard_relation>
=

> <predicted_activity_value>
5.566486179335457

> <actual_activity_value>
5.533132379645891

> <Publication ID>
nan

> <standard_units>
nM

> hash
10879493924106730428

$$$$
11_
XXILIB    08252103513D 0   0.00000     0.00000

 26 28  0     1  0            999 V2000
   -8.6932    0.0695    3.2087 S   0  0  2  0  0  6           0  0  0
   -9.2766   -1.0362    2.4744 O   0  0  0  0  0  2           0  0  0
   -8.8763    0.1905    4.6418 O   0  0  0  0  0  2           0  0  0
    1.3868    0.0000    0.0000 O   0  0  0  0  0  2           0  0  0
   -0.6847    0.0000    1.1639 N   0  0  0  0  0  3           0  0  0
   -2.7069    0.0043   -0.0944 N   0  0  0  0  0  3           0  0  0
   -9.1312    1.5365    2.4592 N   0  0  0  0  0  3           0  0  0
   -2.8030    0.0049    2.2606 N   0  0  0  0  0  3           0  0  0
   -2.6687    0.0271   -2.4653 N   0  0  0  0  0  3           0  0  0
   -6.9577    0.0591    2.8939 C   0  0  0  0  0  4           0  0  0
    0.0000    0.0000    0.0000 C   0  0  0  0  0  4           0  0  0
   -2.0355    0.0034    1.0836 C   0  0  0  0  0  4           0  0  0
   -1.9949   -0.0121   -1.2473 C   0  0  0  0  0  4           0  0  0
   -4.1878    0.0083    2.4475 C   0  0  0  0  0  4           0  0  0
   -6.1005    0.6477    3.8205 C   0  0  0  0  0  4           0  0  0
   -6.4556   -0.5633    1.7546 C   0  0  0  0  0  4           0  0  0
   -0.6104   -0.0003   -1.2374 C   0  0  0  0  0  4           0  0  0
   -4.7235    0.6225    3.5920 C   0  0  0  0  0  4           0  0  0
   -5.0752   -0.5852    1.5352 C   0  0  0  0  0  4           0  0  0
    2.0000    0.0000    1.2903 C   0  0  0  0  0  4           0  0  0
    3.5162    0.0000    1.1135 C   0  0  2  0  0  4           0  0  0
    3.9928    1.2387    0.3379 C   0  0  0  0  0  4           0  0  0
    4.0028   -1.2813    0.4175 C   0  0  0  0  0  4           0  0  0
    5.5106    1.2408    0.1639 C   0  0  0  0  0  4           0  0  0
    5.5207   -1.2821    0.2436 C   0  0  0  0  0  4           0  0  0
    6.0001   -0.0411   -0.5034 C   0  0  0  0  0  4           0  0  0
  1  2  2  0     0  0
  1  3  2  0     0  0
  1  7  1  0     0  0
  1 10  1  0     0  0
  4 11  1  0     0  0
  4 20  1  0     0  0
  5 11  2  0     0  0
  5 12  1  0     0  0
  6 12  2  0     0  0
  6 13  1  0     0  0
  8 12  1  0     0  0
  8 14  1  0     0  0
  9 13  1  0     0  0
 10 15  2  0     0  0
 10 16  1  0     0  0
 11 17  1  0     0  0
 13 17  2  0     0  0
 14 18  2  0     0  0
 14 19  1  0     0  0
 15 18  1  0     0  0
 16 19  2  0     0  0
 20 21  1  0     0  0
 21 22  1  0     0  0
 21 23  1  0     0  0
 22 24  1  0     0  0
 23 25  1  0     0  0
 24 26  1  0     0  0
 25 26  1  0     0  0
M  END
> <Compound >
11

> <standard_type>
pIC50

> <# Confs.>
25

> <canonical_smiles>
NC1=CC(OCC2CCCCC2)=NC(NC3=CC=C(S(=O)(N)=O)C=C3)=N1

> <standard_relation>
=

> <predicted_activity_value>
5.566486179335457

> <actual_activity_value>
5.533132379645891

> <Publication ID>
nan

> <standard_units>
nM

> hash
10879493924106730428

$$$$
11_
XXILIB    08252103513D 0   0.00000     0.00000

 26 28  0     1  0            999 V2000
   -8.6979   -0.0868    3.1765 S   0  0  2  0  0  6           0  0  0
   -9.3526    0.0587    1.8911 O   0  0  0  0  0  2           0  0  0
   -8.9635   -1.2347    4.0215 O   0  0  0  0  0  2           0  0  0
    1.3868    0.0000    0.0000 O   0  0  0  0  0  2           0  0  0
   -0.6847    0.0000    1.1639 N   0  0  0  0  0  3           0  0  0
   -2.7069    0.0043   -0.0944 N   0  0  0  0  0  3           0  0  0
   -8.9126    1.3411    4.0825 N   0  0  0  0  0  3           0  0  0
   -2.8030    0.0049    2.2606 N   0  0  0  0  0  3           0  0  0
   -2.6687    0.0271   -2.4653 N   0  0  0  0  0  3           0  0  0
   -6.9576   -0.0251    2.8961 C   0  0  0  0  0  4           0  0  0
    0.0000    0.0000    0.0000 C   0  0  0  0  0  4           0  0  0
   -2.0355    0.0034    1.0836 C   0  0  0  0  0  4           0  0  0
   -1.9949   -0.0121   -1.2473 C   0  0  0  0  0  4           0  0  0
   -4.1878    0.0083    2.4475 C   0  0  0  0  0  4           0  0  0
   -6.1040   -0.6262    3.8179 C   0  0  0  0  0  4           0  0  0
   -6.4535    0.5826    1.7497 C   0  0  0  0  0  4           0  0  0
   -0.6104   -0.0003   -1.2374 C   0  0  0  0  0  4           0  0  0
   -4.7265   -0.6039    3.5916 C   0  0  0  0  0  4           0  0  0
   -5.0729    0.5982    1.5306 C   0  0  0  0  0  4           0  0  0
    2.0000    0.0000    1.2903 C   0  0  0  0  0  4           0  0  0
    3.5162    0.0000    1.1135 C   0  0  2  0  0  4           0  0  0
    4.2412    0.0000    2.4690 C   0  0  0  0  0  4           0  0  0
    3.9846    1.1906    0.2614 C   0  0  0  0  0  4           0  0  0
    5.7587   -0.0036    2.2925 C   0  0  0  0  0  4           0  0  0
    5.5018    1.1883    0.0823 C   0  0  0  0  0  4           0  0  0
    6.2250    1.1623    1.4256 C   0  0  0  0  0  4           0  0  0
  1  2  2  0     0  0
  1  3  2  0     0  0
  1  7  1  0     0  0
  1 10  1  0     0  0
  4 11  1  0     0  0
  4 20  1  0     0  0
  5 11  2  0     0  0
  5 12  1  0     0  0
  6 12  2  0     0  0
  6 13  1  0     0  0
  8 12  1  0     0  0
  8 14  1  0     0  0
  9 13  1  0     0  0
 10 15  2  0     0  0
 10 16  1  0     0  0
 11 17  1  0     0  0
 13 17  2  0     0  0
 14 18  2  0     0  0
 14 19  1  0     0  0
 15 18  1  0     0  0
 16 19  2  0     0  0
 20 21  1  0     0  0
 21 22  1  0     0  0
 21 23  1  0     0  0
 22 24  1  0     0  0
 23 25  1  0     0  0
 24 26  1  0     0  0
 25 26  1  0     0  0
M  END
> <Compound >
11

> <standard_type>
pIC50

> <# Confs.>
25

> <canonical_smiles>
NC1=CC(OCC2CCCCC2)=NC(NC3=CC=C(S(=O)(N)=O)C=C3)=N1

> <standard_relation>
=

> <predicted_activity_value>
5.566486179335457

> <actual_activity_value>
5.533132379645891

> <Publication ID>
nan

> <standard_units>
nM

> hash
10879493924106730428

$$$$
11_
XXILIB    08252103513D 0   0.00000     0.00000

 26 28  0     1  0            999 V2000
   -8.6979   -0.0868    3.1765 S   0  0  2  0  0  6           0  0  0
   -9.3526    0.0587    1.8911 O   0  0  0  0  0  2           0  0  0
   -8.9635   -1.2347    4.0215 O   0  0  0  0  0  2           0  0  0
    1.3868    0.0000    0.0000 O   0  0  0  0  0  2           0  0  0
   -0.6847    0.0000    1.1639 N   0  0  0  0  0  3           0  0  0
   -2.7069    0.0043   -0.0944 N   0  0  0  0  0  3           0  0  0
   -8.9126    1.3411    4.0825 N   0  0  0  0  0  3           0  0  0
   -2.8030    0.0049    2.2606 N   0  0  0  0  0  3           0  0  0
   -2.6687    0.0271   -2.4653 N   0  0  0  0  0  3           0  0  0
   -6.9576   -0.0251    2.8961 C   0  0  0  0  0  4           0  0  0
    0.0000    0.0000    0.0000 C   0  0  0  0  0  4           0  0  0
   -2.0355    0.0034    1.0836 C   0  0  0  0  0  4           0  0  0
   -1.9949   -0.0121   -1.2473 C   0  0  0  0  0  4           0  0  0
   -4.1878    0.0083    2.4475 C   0  0  0  0  0  4           0  0  0
   -6.1040   -0.6262    3.8179 C   0  0  0  0  0  4           0  0  0
   -6.4535    0.5826    1.7497 C   0  0  0  0  0  4           0  0  0
   -0.6104   -0.0003   -1.2374 C   0  0  0  0  0  4           0  0  0
   -4.7265   -0.6039    3.5916 C   0  0  0  0  0  4           0  0  0
   -5.0729    0.5982    1.5306 C   0  0  0  0  0  4           0  0  0
    2.0000    0.0000    1.2903 C   0  0  0  0  0  4           0  0  0
    3.5162    0.0000    1.1135 C   0  0  2  0  0  4           0  0  0
    3.9928    1.2387    0.3379 C   0  0  0  0  0  4           0  0  0
    4.0028   -1.2813    0.4175 C   0  0  0  0  0  4           0  0  0
    5.5106    1.2408    0.1639 C   0  0  0  0  0  4           0  0  0
    5.5207   -1.2821    0.2436 C   0  0  0  0  0  4           0  0  0
    6.0001   -0.0411   -0.5034 C   0  0  0  0  0  4           0  0  0
  1  2  2  0     0  0
  1  3  2  0     0  0
  1  7  1  0     0  0
  1 10  1  0     0  0
  4 11  1  0     0  0
  4 20  1  0     0  0
  5 11  2  0     0  0
  5 12  1  0     0  0
  6 12  2  0     0  0
  6 13  1  0     0  0
  8 12  1  0     0  0
  8 14  1  0     0  0
  9 13  1  0     0  0
 10 15  2  0     0  0
 10 16  1  0     0  0
 11 17  1  0     0  0
 13 17  2  0     0  0
 14 18  2  0     0  0
 14 19  1  0     0  0
 15 18  1  0     0  0
 16 19  2  0     0  0
 20 21  1  0     0  0
 21 22  1  0     0  0
 21 23  1  0     0  0
 22 24  1  0     0  0
 23 25  1  0     0  0
 24 26  1  0     0  0
 25 26  1  0     0  0
M  END
> <Compound >
11

> <standard_type>
pIC50

> <# Confs.>
25

> <canonical_smiles>
NC1=CC(OCC2CCCCC2)=NC(NC3=CC=C(S(=O)(N)=O)C=C3)=N1

> <standard_relation>
=

> <predicted_activity_value>
5.566486179335457

> <actual_activity_value>
5.533132379645891

> <Publication ID>
nan

> <standard_units>
nM

> hash
10879493924106730428

$$$$
11_
XXILIB    08252103513D 0   0.00000     0.00000

 26 28  0     1  0            999 V2000
   -1.2945   -0.0510    8.0328 S   0  0  2  0  0  6           0  0  0
   -0.3859    1.0540    8.2684 O   0  0  0  0  0  2           0  0  0
   -2.5321   -0.1692    8.7787 O   0  0  0  0  0  2           0  0  0
    1.3868    0.0000   -0.0000 O   0  0  0  0  0  2           0  0  0
   -0.6847   -0.0000    1.1639 N   0  0  0  0  0  3           0  0  0
   -2.7069    0.0043   -0.0944 N   0  0  0  0  0  3           0  0  0
   -0.4337   -1.5189    8.1340 N   0  0  0  0  0  3           0  0  0
   -2.8030    0.0049    2.2606 N   0  0  0  0  0  3           0  0  0
   -2.6687    0.0271   -2.4653 N   0  0  0  0  0  3           0  0  0
   -1.7066   -0.0432    6.3178 C   0  0  0  0  0  4           0  0  0
    0.0000    0.0000    0.0000 C   0  0  0  0  0  4           0  0  0
   -2.0355    0.0034    1.0836 C   0  0  0  0  0  4           0  0  0
   -1.9949   -0.0121   -1.2473 C   0  0  0  0  0  4           0  0  0
   -2.4154    0.0035    3.6031 C   0  0  0  0  0  4           0  0  0
   -2.9009   -0.6312    5.9083 C   0  0  0  0  0  4           0  0  0
   -0.8658    0.5766    5.3977 C   0  0  0  0  0  4           0  0  0
   -0.6104   -0.0003   -1.2374 C   0  0  0  0  0  4           0  0  0
   -3.2473   -0.6080    4.5561 C   0  0  0  0  0  4           0  0  0
   -1.2220    0.5965    4.0460 C   0  0  0  0  0  4           0  0  0
    2.0000    0.0000    1.2903 C   0  0  0  0  0  4           0  0  0
    2.2108    1.4453    1.7338 C   0  0  2  0  0  4           0  0  0
    3.1167    2.2087    0.7542 C   0  0  0  0  0  4           0  0  0
    2.7866    1.5202    3.1571 C   0  0  0  0  0  4           0  0  0
    3.3250    3.6562    1.1960 C   0  0  0  0  0  4           0  0  0
    2.9945    2.9670    3.6017 C   0  0  0  0  0  4           0  0  0
    3.8724    3.7352    2.6181 C   0  0  0  0  0  4           0  0  0
  1  2  2  0     0  0
  1  3  2  0     0  0
  1  7  1  0     0  0
  1 10  1  0     0  0
  4 11  1  0     0  0
  4 20  1  0     0  0
  5 11  2  0     0  0
  5 12  1  0     0  0
  6 12  2  0     0  0
  6 13  1  0     0  0
  8 12  1  0     0  0
  8 14  1  0     0  0
  9 13  1  0     0  0
 10 15  2  0     0  0
 10 16  1  0     0  0
 11 17  1  0     0  0
 13 17  2  0     0  0
 14 18  2  0     0  0
 14 19  1  0     0  0
 15 18  1  0     0  0
 16 19  2  0     0  0
 20 21  1  0     0  0
 21 22  1  0     0  0
 21 23  1  0     0  0
 22 24  1  0     0  0
 23 25  1  0     0  0
 24 26  1  0     0  0
 25 26  1  0     0  0
M  END
> <Compound >
11

> <standard_type>
pIC50

> <# Confs.>
25

> <canonical_smiles>
NC1=CC(OCC2CCCCC2)=NC(NC3=CC=C(S(=O)(N)=O)C=C3)=N1

> <standard_relation>
=

> <predicted_activity_value>
5.566486179335457

> <actual_activity_value>
5.533132379645891

> <Publication ID>
nan

> <standard_units>
nM

> hash
10879493924106730428

$$$$
11_
XXILIB    08252103513D 0   0.00000     0.00000

 26 28  0     1  0            999 V2000
   -1.2630    0.1052    8.0239 S   0  0  2  0  0  6           0  0  0
    0.1771   -0.0418    8.1047 O   0  0  0  0  0  2           0  0  0
   -1.9277    1.2549    8.6058 O   0  0  0  0  0  2           0  0  0
    1.3868   -0.0000    0.0000 O   0  0  0  0  0  2           0  0  0
   -0.6847   -0.0000    1.1639 N   0  0  0  0  0  3           0  0  0
   -2.7069    0.0043   -0.0944 N   0  0  0  0  0  3           0  0  0
   -2.0070   -1.3207    8.5884 N   0  0  0  0  0  3           0  0  0
   -2.8030    0.0049    2.2606 N   0  0  0  0  0  3           0  0  0
   -2.6687    0.0271   -2.4653 N   0  0  0  0  0  3           0  0  0
   -1.7085    0.0410    6.3185 C   0  0  0  0  0  4           0  0  0
   -0.0000    0.0000    0.0000 C   0  0  0  0  0  4           0  0  0
   -2.0355    0.0034    1.0836 C   0  0  0  0  0  4           0  0  0
   -1.9949   -0.0121   -1.2473 C   0  0  0  0  0  4           0  0  0
   -2.4154    0.0035    3.6031 C   0  0  0  0  0  4           0  0  0
   -2.8956    0.6427    5.9082 C   0  0  0  0  0  4           0  0  0
   -0.8635   -0.5694    5.3958 C   0  0  0  0  0  4           0  0  0
   -0.6104   -0.0003   -1.2374 C   0  0  0  0  0  4           0  0  0
   -3.2442    0.6185    4.5565 C   0  0  0  0  0  4           0  0  0
   -1.2201   -0.5870    4.0442 C   0  0  0  0  0  4           0  0  0
    2.0000   -0.0000    1.2903 C   0  0  0  0  0  4           0  0  0
    2.2108   -1.4453    1.7338 C   0  0  2  0  0  4           0  0  0
    2.8698   -1.5184    3.1207 C   0  0  0  0  0  4           0  0  0
    3.0420   -2.2342    0.7093 C   0  0  0  0  0  4           0  0  0
    3.0777   -2.9648    3.5665 C   0  0  0  0  0  4           0  0  0
    3.2501   -3.6814    1.1523 C   0  0  0  0  0  4           0  0  0
    3.8805   -3.7580    2.5397 C   0  0  0  0  0  4           0  0  0
  1  2  2  0     0  0
  1  3  2  0     0  0
  1  7  1  0     0  0
  1 10  1  0     0  0
  4 11  1  0     0  0
  4 20  1  0     0  0
  5 11  2  0     0  0
  5 12  1  0     0  0
  6 12  2  0     0  0
  6 13  1  0     0  0
  8 12  1  0     0  0
  8 14  1  0     0  0
  9 13  1  0     0  0
 10 15  2  0     0  0
 10 16  1  0     0  0
 11 17  1  0     0  0
 13 17  2  0     0  0
 14 18  2  0     0  0
 14 19  1  0     0  0
 15 18  1  0     0  0
 16 19  2  0     0  0
 20 21  1  0     0  0
 21 22  1  0     0  0
 21 23  1  0     0  0
 22 24  1  0     0  0
 23 25  1  0     0  0
 24 26  1  0     0  0
 25 26  1  0     0  0
M  END
> <Compound >
11

> <standard_type>
pIC50

> <# Confs.>
25

> <canonical_smiles>
NC1=CC(OCC2CCCCC2)=NC(NC3=CC=C(S(=O)(N)=O)C=C3)=N1

> <standard_relation>
=

> <predicted_activity_value>
5.566486179335457

> <actual_activity_value>
5.533132379645891

> <Publication ID>
nan

> <standard_units>
nM

> hash
10879493924106730428

$$$$
11_
XXILIB    08252103513D 0   0.00000     0.00000

 26 28  0     1  0            999 V2000
   -1.2945   -0.0510    8.0328 S   0  0  2  0  0  6           0  0  0
   -0.3859    1.0540    8.2684 O   0  0  0  0  0  2           0  0  0
   -2.5321   -0.1692    8.7787 O   0  0  0  0  0  2           0  0  0
    1.3868   -0.0000    0.0000 O   0  0  0  0  0  2           0  0  0
   -0.6847   -0.0000    1.1639 N   0  0  0  0  0  3           0  0  0
   -2.7069    0.0043   -0.0944 N   0  0  0  0  0  3           0  0  0
   -0.4337   -1.5189    8.1340 N   0  0  0  0  0  3           0  0  0
   -2.8030    0.0049    2.2606 N   0  0  0  0  0  3           0  0  0
   -2.6687    0.0271   -2.4653 N   0  0  0  0  0  3           0  0  0
   -1.7066   -0.0432    6.3178 C   0  0  0  0  0  4           0  0  0
    0.0000    0.0000    0.0000 C   0  0  0  0  0  4           0  0  0
   -2.0355    0.0034    1.0836 C   0  0  0  0  0  4           0  0  0
   -1.9949   -0.0121   -1.2473 C   0  0  0  0  0  4           0  0  0
   -2.4154    0.0035    3.6031 C   0  0  0  0  0  4           0  0  0
   -2.9009   -0.6312    5.9083 C   0  0  0  0  0  4           0  0  0
   -0.8658    0.5766    5.3977 C   0  0  0  0  0  4           0  0  0
   -0.6104   -0.0003   -1.2374 C   0  0  0  0  0  4           0  0  0
   -3.2473   -0.6080    4.5561 C   0  0  0  0  0  4           0  0  0
   -1.2220    0.5965    4.0460 C   0  0  0  0  0  4           0  0  0
    2.0000   -0.0000    1.2903 C   0  0  0  0  0  4           0  0  0
    2.2108   -1.4453    1.7338 C   0  0  2  0  0  4           0  0  0
    2.8698   -1.5184    3.1207 C   0  0  0  0  0  4           0  0  0
    3.0420   -2.2342    0.7093 C   0  0  0  0  0  4           0  0  0
    3.0777   -2.9648    3.5665 C   0  0  0  0  0  4           0  0  0
    3.2501   -3.6814    1.1523 C   0  0  0  0  0  4           0  0  0
    3.8805   -3.7580    2.5397 C   0  0  0  0  0  4           0  0  0
  1  2  2  0     0  0
  1  3  2  0     0  0
  1  7  1  0     0  0
  1 10  1  0     0  0
  4 11  1  0     0  0
  4 20  1  0     0  0
  5 11  2  0     0  0
  5 12  1  0     0  0
  6 12  2  0     0  0
  6 13  1  0     0  0
  8 12  1  0     0  0
  8 14  1  0     0  0
  9 13  1  0     0  0
 10 15  2  0     0  0
 10 16  1  0     0  0
 11 17  1  0     0  0
 13 17  2  0     0  0
 14 18  2  0     0  0
 14 19  1  0     0  0
 15 18  1  0     0  0
 16 19  2  0     0  0
 20 21  1  0     0  0
 21 22  1  0     0  0
 21 23  1  0     0  0
 22 24  1  0     0  0
 23 25  1  0     0  0
 24 26  1  0     0  0
 25 26  1  0     0  0
M  END
> <Compound >
11

> <standard_type>
pIC50

> <# Confs.>
25

> <canonical_smiles>
NC1=CC(OCC2CCCCC2)=NC(NC3=CC=C(S(=O)(N)=O)C=C3)=N1

> <standard_relation>
=

> <predicted_activity_value>
5.566486179335457

> <actual_activity_value>
5.533132379645891

> <Publication ID>
nan

> <standard_units>
nM

> hash
10879493924106730428

$$$$
9_
XXILIB    08252103513D 0   0.00000     0.00000

 22 23  0     1  0            999 V2000
   -2.7328    0.0327    2.3124 O   0  0  0  0  0  2           0  0  0
    5.0564   -0.0084    4.2319 O   0  0  0  0  0  2           0  0  0
   -4.8379   -0.4708   -1.0191 O   0  0  0  0  0  2           0  0  0
   -0.6711   -0.0000    1.1710 N   0  0  0  0  0  3           0  0  0
   -0.6205    0.0014   -1.2015 N   0  0  0  0  0  3           0  0  0
    1.4056   -0.0000   -0.0000 N   0  0  0  0  0  3           0  0  0
   -2.5688    0.0123   -2.5056 N   0  0  0  0  0  3           0  0  0
   -2.0226    0.0093    1.1210 C   0  0  0  0  0  4           0  0  0
    4.2224   -0.0486    3.1504 C   0  0  0  0  0  4           0  0  0
    0.0000    0.0000    0.0000 C   0  0  0  0  0  4           0  0  0
   -1.9769   -0.0123   -1.2456 C   0  0  0  0  0  4           0  0  0
    2.3186   -0.0000    1.0576 C   0  0  0  0  0  4           0  0  0
   -2.7317    0.0094   -0.0745 C   0  0  0  0  0  4           0  0  0
    4.5145   -0.6382    1.9195 C   0  0  0  0  0  4           0  0  0
    2.9800    0.5635    3.3319 C   0  0  0  0  0  4           0  0  0
    3.5701   -0.6115    0.8864 C   0  0  0  0  0  4           0  0  0
    2.0386    0.5889    2.2979 C   0  0  0  0  0  4           0  0  0
   -4.1985    0.0458   -0.1117 C   0  0  0  0  0  4           0  0  0
   -1.9393    0.0448    3.5009 C   0  0  2  0  0  4           0  0  0
    6.3244   -0.6335    4.0462 C   0  0  0  0  0  4           0  0  0
   -2.7443   -0.6617    4.5876 C   0  0  0  0  0  4           0  0  0
   -1.6455    1.4874    3.9047 C   0  0  0  0  0  4           0  0  0
  1  8  1  0     0  0
  1 19  1  0     0  0
  2  9  1  0     0  0
  2 20  1  0     0  0
  3 18  2  0     0  0
  4  8  2  0     0  0
  4 10  1  0     0  0
  5 10  2  0     0  0
  5 11  1  0     0  0
  6 10  1  0     0  0
  6 12  1  0     0  0
  7 11  1  0     0  0
  8 13  1  0     0  0
  9 14  2  0     0  0
  9 15  1  0     0  0
 11 13  2  0     0  0
 12 16  2  0     0  0
 12 17  1  0     0  0
 13 18  1  0     0  0
 14 16  1  0     0  0
 15 17  2  0     0  0
 19 21  1  0     0  0
 19 22  1  0     0  0
M  END
> <Compound >
9

> <standard_type>
pIC50

> <# Confs.>
25

> <canonical_smiles>
CC(C)OC1=NC(NC2=CC=C(OC)C=C2)=NC(N)=C1C([H])=O

> <standard_relation>
=

> <predicted_activity_value>
5.541815564429737

> <actual_activity_value>
5.7447274948966935

> <Publication ID>
nan

> <standard_units>
nM

> hash
4021364287625090966

$$$$
9_
XXILIB    08252103513D 0   0.00000     0.00000

 22 23  0     1  0            999 V2000
   -2.7328    0.0327    2.3124 O   0  0  0  0  0  2           0  0  0
    5.0626   -0.0058    4.2265 O   0  0  0  0  0  2           0  0  0
   -4.8379   -0.4708   -1.0191 O   0  0  0  0  0  2           0  0  0
   -0.6711   -0.0000    1.1710 N   0  0  0  0  0  3           0  0  0
   -0.6205    0.0014   -1.2015 N   0  0  0  0  0  3           0  0  0
    1.4056    0.0000    0.0000 N   0  0  0  0  0  3           0  0  0
   -2.5688    0.0123   -2.5056 N   0  0  0  0  0  3           0  0  0
   -2.0226    0.0093    1.1210 C   0  0  0  0  0  4           0  0  0
    4.2265    0.0393    3.1469 C   0  0  0  0  0  4           0  0  0
    0.0000    0.0000    0.0000 C   0  0  0  0  0  4           0  0  0
   -1.9769   -0.0123   -1.2456 C   0  0  0  0  0  4           0  0  0
    2.3186    0.0000    1.0576 C   0  0  0  0  0  4           0  0  0
   -2.7317    0.0094   -0.0745 C   0  0  0  0  0  4           0  0  0
    4.5169    0.6326    1.9174 C   0  0  0  0  0  4           0  0  0
    2.9836   -0.5718    3.3288 C   0  0  0  0  0  4           0  0  0
    3.5701    0.6115    0.8864 C   0  0  0  0  0  4           0  0  0
    2.0395   -0.5910    2.2971 C   0  0  0  0  0  4           0  0  0
   -4.1985    0.0458   -0.1117 C   0  0  0  0  0  4           0  0  0
   -1.9393    0.0448    3.5009 C   0  0  2  0  0  4           0  0  0
    6.3312    0.6179    4.0403 C   0  0  0  0  0  4           0  0  0
   -2.7443   -0.6617    4.5876 C   0  0  0  0  0  4           0  0  0
   -1.6455    1.4874    3.9047 C   0  0  0  0  0  4           0  0  0
  1  8  1  0     0  0
  1 19  1  0     0  0
  2  9  1  0     0  0
  2 20  1  0     0  0
  3 18  2  0     0  0
  4  8  2  0     0  0
  4 10  1  0     0  0
  5 10  2  0     0  0
  5 11  1  0     0  0
  6 10  1  0     0  0
  6 12  1  0     0  0
  7 11  1  0     0  0
  8 13  1  0     0  0
  9 14  2  0     0  0
  9 15  1  0     0  0
 11 13  2  0     0  0
 12 16  2  0     0  0
 12 17  1  0     0  0
 13 18  1  0     0  0
 14 16  1  0     0  0
 15 17  2  0     0  0
 19 21  1  0     0  0
 19 22  1  0     0  0
M  END
> <Compound >
9

> <standard_type>
pIC50

> <# Confs.>
25

> <canonical_smiles>
CC(C)OC1=NC(NC2=CC=C(OC)C=C2)=NC(N)=C1C([H])=O

> <standard_relation>
=

> <predicted_activity_value>
5.541815564429737

> <actual_activity_value>
5.7447274948966935

> <Publication ID>
nan

> <standard_units>
nM

> hash
4021364287625090966

$$$$
9_
XXILIB    08252103513D 0   0.00000     0.00000

 22 23  0     1  0            999 V2000
   -2.7328    0.0327    2.3124 O   0  0  0  0  0  2           0  0  0
    5.0531    0.0058    4.2348 O   0  0  0  0  0  2           0  0  0
   -4.8379   -0.4708   -1.0191 O   0  0  0  0  0  2           0  0  0
   -0.6711   -0.0000    1.1710 N   0  0  0  0  0  3           0  0  0
   -0.6205    0.0014   -1.2015 N   0  0  0  0  0  3           0  0  0
    1.4056    0.0000   -0.0000 N   0  0  0  0  0  3           0  0  0
   -2.5688    0.0123   -2.5056 N   0  0  0  0  0  3           0  0  0
   -2.0226    0.0093    1.1210 C   0  0  0  0  0  4           0  0  0
    4.1071   -0.0393    3.2500 C   0  0  0  0  0  4           0  0  0
    0.0000    0.0000    0.0000 C   0  0  0  0  0  4           0  0  0
   -1.9769   -0.0123   -1.2456 C   0  0  0  0  0  4           0  0  0
    2.3186    0.0000    1.0576 C   0  0  0  0  0  4           0  0  0
   -2.7317    0.0094   -0.0745 C   0  0  0  0  0  4           0  0  0
    2.8483   -0.6326    3.3578 C   0  0  0  0  0  4           0  0  0
    4.4684    0.5718    2.0470 C   0  0  0  0  0  4           0  0  0
    1.9666   -0.6115    2.2707 C   0  0  0  0  0  4           0  0  0
    3.5856    0.5910    0.9624 C   0  0  0  0  0  4           0  0  0
   -4.1985    0.0458   -0.1117 C   0  0  0  0  0  4           0  0  0
   -1.9393    0.0448    3.5009 C   0  0  2  0  0  4           0  0  0
    4.6837   -0.6179    5.4626 C   0  0  0  0  0  4           0  0  0
   -1.6999   -1.4089    3.8979 C   0  0  0  0  0  4           0  0  0
   -2.6865    0.7857    4.6069 C   0  0  0  0  0  4           0  0  0
  1  8  1  0     0  0
  1 19  1  0     0  0
  2  9  1  0     0  0
  2 20  1  0     0  0
  3 18  2  0     0  0
  4  8  2  0     0  0
  4 10  1  0     0  0
  5 10  2  0     0  0
  5 11  1  0     0  0
  6 10  1  0     0  0
  6 12  1  0     0  0
  7 11  1  0     0  0
  8 13  1  0     0  0
  9 14  2  0     0  0
  9 15  1  0     0  0
 11 13  2  0     0  0
 12 16  2  0     0  0
 12 17  1  0     0  0
 13 18  1  0     0  0
 14 16  1  0     0  0
 15 17  2  0     0  0
 19 21  1  0     0  0
 19 22  1  0     0  0
M  END
> <Compound >
9

> <standard_type>
pIC50

> <# Confs.>
25

> <canonical_smiles>
CC(C)OC1=NC(NC2=CC=C(OC)C=C2)=NC(N)=C1C([H])=O

> <standard_relation>
=

> <predicted_activity_value>
5.541815564429737

> <actual_activity_value>
5.7447274948966935

> <Publication ID>
nan

> <standard_units>
nM

> hash
4021364287625090966

$$$$
9_
XXILIB    08252103513D 0   0.00000     0.00000

 22 23  0     1  0            999 V2000
   -2.7328    0.0327    2.3124 O   0  0  0  0  0  2           0  0  0
    5.0626    0.0058   -4.2265 O   0  0  0  0  0  2           0  0  0
   -4.8379   -0.4708   -1.0191 O   0  0  0  0  0  2           0  0  0
   -0.6711   -0.0000    1.1710 N   0  0  0  0  0  3           0  0  0
   -0.6205    0.0014   -1.2015 N   0  0  0  0  0  3           0  0  0
    1.4056   -0.0000   -0.0000 N   0  0  0  0  0  3           0  0  0
   -2.5688    0.0123   -2.5056 N   0  0  0  0  0  3           0  0  0
   -2.0226    0.0093    1.1210 C   0  0  0  0  0  4           0  0  0
    4.2265   -0.0393   -3.1469 C   0  0  0  0  0  4           0  0  0
    0.0000    0.0000    0.0000 C   0  0  0  0  0  4           0  0  0
   -1.9769   -0.0123   -1.2456 C   0  0  0  0  0  4           0  0  0
    2.3186    0.0000   -1.0576 C   0  0  0  0  0  4           0  0  0
   -2.7317    0.0094   -0.0745 C   0  0  0  0  0  4           0  0  0
    4.5169   -0.6326   -1.9174 C   0  0  0  0  0  4           0  0  0
    2.9836    0.5718   -3.3288 C   0  0  0  0  0  4           0  0  0
    3.5701   -0.6115   -0.8864 C   0  0  0  0  0  4           0  0  0
    2.0395    0.5910   -2.2971 C   0  0  0  0  0  4           0  0  0
   -4.1985    0.0458   -0.1117 C   0  0  0  0  0  4           0  0  0
   -1.9393    0.0448    3.5009 C   0  0  2  0  0  4           0  0  0
    6.3312   -0.6179   -4.0403 C   0  0  0  0  0  4           0  0  0
   -2.7443   -0.6617    4.5876 C   0  0  0  0  0  4           0  0  0
   -1.6455    1.4874    3.9047 C   0  0  0  0  0  4           0  0  0
  1  8  1  0     0  0
  1 19  1  0     0  0
  2  9  1  0     0  0
  2 20  1  0     0  0
  3 18  2  0     0  0
  4  8  2  0     0  0
  4 10  1  0     0  0
  5 10  2  0     0  0
  5 11  1  0     0  0
  6 10  1  0     0  0
  6 12  1  0     0  0
  7 11  1  0     0  0
  8 13  1  0     0  0
  9 14  2  0     0  0
  9 15  1  0     0  0
 11 13  2  0     0  0
 12 16  2  0     0  0
 12 17  1  0     0  0
 13 18  1  0     0  0
 14 16  1  0     0  0
 15 17  2  0     0  0
 19 21  1  0     0  0
 19 22  1  0     0  0
M  END
> <Compound >
9

> <standard_type>
pIC50

> <# Confs.>
25

> <canonical_smiles>
CC(C)OC1=NC(NC2=CC=C(OC)C=C2)=NC(N)=C1C([H])=O

> <standard_relation>
=

> <predicted_activity_value>
5.541815564429737

> <actual_activity_value>
5.7447274948966935

> <Publication ID>
nan

> <standard_units>
nM

> hash
4021364287625090966

$$$$
9_
XXILIB    08252103513D 0   0.00000     0.00000

 22 23  0     1  0            999 V2000
   -2.7328    0.0327    2.3124 O   0  0  0  0  0  2           0  0  0
    5.0564    0.0084   -4.2319 O   0  0  0  0  0  2           0  0  0
   -4.8379   -0.4708   -1.0191 O   0  0  0  0  0  2           0  0  0
   -0.6711   -0.0000    1.1710 N   0  0  0  0  0  3           0  0  0
   -0.6205    0.0014   -1.2015 N   0  0  0  0  0  3           0  0  0
    1.4056    0.0000    0.0000 N   0  0  0  0  0  3           0  0  0
   -2.5688    0.0123   -2.5056 N   0  0  0  0  0  3           0  0  0
   -2.0226    0.0093    1.1210 C   0  0  0  0  0  4           0  0  0
    4.2224    0.0486   -3.1504 C   0  0  0  0  0  4           0  0  0
    0.0000    0.0000    0.0000 C   0  0  0  0  0  4           0  0  0
   -1.9769   -0.0123   -1.2456 C   0  0  0  0  0  4           0  0  0
    2.3186    0.0000   -1.0576 C   0  0  0  0  0  4           0  0  0
   -2.7317    0.0094   -0.0745 C   0  0  0  0  0  4           0  0  0
    4.5145    0.6382   -1.9195 C   0  0  0  0  0  4           0  0  0
    2.9800   -0.5635   -3.3319 C   0  0  0  0  0  4           0  0  0
    3.5701    0.6115   -0.8864 C   0  0  0  0  0  4           0  0  0
    2.0386   -0.5889   -2.2979 C   0  0  0  0  0  4           0  0  0
   -4.1985    0.0458   -0.1117 C   0  0  0  0  0  4           0  0  0
   -1.9393    0.0448    3.5009 C   0  0  2  0  0  4           0  0  0
    6.3244    0.6335   -4.0462 C   0  0  0  0  0  4           0  0  0
   -2.7443   -0.6617    4.5876 C   0  0  0  0  0  4           0  0  0
   -1.6455    1.4874    3.9047 C   0  0  0  0  0  4           0  0  0
  1  8  1  0     0  0
  1 19  1  0     0  0
  2  9  1  0     0  0
  2 20  1  0     0  0
  3 18  2  0     0  0
  4  8  2  0     0  0
  4 10  1  0     0  0
  5 10  2  0     0  0
  5 11  1  0     0  0
  6 10  1  0     0  0
  6 12  1  0     0  0
  7 11  1  0     0  0
  8 13  1  0     0  0
  9 14  2  0     0  0
  9 15  1  0     0  0
 11 13  2  0     0  0
 12 16  2  0     0  0
 12 17  1  0     0  0
 13 18  1  0     0  0
 14 16  1  0     0  0
 15 17  2  0     0  0
 19 21  1  0     0  0
 19 22  1  0     0  0
M  END
> <Compound >
9

> <standard_type>
pIC50

> <# Confs.>
25

> <canonical_smiles>
CC(C)OC1=NC(NC2=CC=C(OC)C=C2)=NC(N)=C1C([H])=O

> <standard_relation>
=

> <predicted_activity_value>
5.541815564429737

> <actual_activity_value>
5.7447274948966935

> <Publication ID>
nan

> <standard_units>
nM

> hash
4021364287625090966

$$$$
9_
XXILIB    08252103513D 0   0.00000     0.00000

 22 23  0     1  0            999 V2000
   -2.7328    0.0327    2.3124 O   0  0  0  0  0  2           0  0  0
    5.0593    0.0084    4.2294 O   0  0  0  0  0  2           0  0  0
   -4.8379   -0.4708   -1.0191 O   0  0  0  0  0  2           0  0  0
   -0.6711   -0.0000    1.1710 N   0  0  0  0  0  3           0  0  0
   -0.6205    0.0014   -1.2015 N   0  0  0  0  0  3           0  0  0
    1.4056   -0.0000    0.0000 N   0  0  0  0  0  3           0  0  0
   -2.5688    0.0123   -2.5056 N   0  0  0  0  0  3           0  0  0
   -2.0226    0.0093    1.1210 C   0  0  0  0  0  4           0  0  0
    4.1112    0.0486    3.2465 C   0  0  0  0  0  4           0  0  0
    0.0000    0.0000    0.0000 C   0  0  0  0  0  4           0  0  0
   -1.9769   -0.0123   -1.2456 C   0  0  0  0  0  4           0  0  0
    2.3186   -0.0000    1.0576 C   0  0  0  0  0  4           0  0  0
   -2.7317    0.0094   -0.0745 C   0  0  0  0  0  4           0  0  0
    2.8507    0.6382    3.3557 C   0  0  0  0  0  4           0  0  0
    4.4720   -0.5635    2.0439 C   0  0  0  0  0  4           0  0  0
    1.9666    0.6115    2.2707 C   0  0  0  0  0  4           0  0  0
    3.5865   -0.5889    0.9616 C   0  0  0  0  0  4           0  0  0
   -4.1985    0.0458   -0.1117 C   0  0  0  0  0  4           0  0  0
   -1.9393    0.0448    3.5009 C   0  0  2  0  0  4           0  0  0
    4.6905    0.6335    5.4567 C   0  0  0  0  0  4           0  0  0
   -1.6999   -1.4089    3.8979 C   0  0  0  0  0  4           0  0  0
   -2.6865    0.7857    4.6069 C   0  0  0  0  0  4           0  0  0
  1  8  1  0     0  0
  1 19  1  0     0  0
  2  9  1  0     0  0
  2 20  1  0     0  0
  3 18  2  0     0  0
  4  8  2  0     0  0
  4 10  1  0     0  0
  5 10  2  0     0  0
  5 11  1  0     0  0
  6 10  1  0     0  0
  6 12  1  0     0  0
  7 11  1  0     0  0
  8 13  1  0     0  0
  9 14  2  0     0  0
  9 15  1  0     0  0
 11 13  2  0     0  0
 12 16  2  0     0  0
 12 17  1  0     0  0
 13 18  1  0     0  0
 14 16  1  0     0  0
 15 17  2  0     0  0
 19 21  1  0     0  0
 19 22  1  0     0  0
M  END
> <Compound >
9

> <standard_type>
pIC50

> <# Confs.>
25

> <canonical_smiles>
CC(C)OC1=NC(NC2=CC=C(OC)C=C2)=NC(N)=C1C([H])=O

> <standard_relation>
=

> <predicted_activity_value>
5.541815564429737

> <actual_activity_value>
5.7447274948966935

> <Publication ID>
nan

> <standard_units>
nM

> hash
4021364287625090966

$$$$
9_
XXILIB    08252103513D 0   0.00000     0.00000

 22 23  0     1  0            999 V2000
   -2.7328    0.0327    2.3124 O   0  0  0  0  0  2           0  0  0
    5.0564   -0.0084    4.2319 O   0  0  0  0  0  2           0  0  0
   -4.8214    0.0458   -1.1658 O   0  0  0  0  0  2           0  0  0
   -0.6711   -0.0000    1.1710 N   0  0  0  0  0  3           0  0  0
   -0.6205    0.0014   -1.2015 N   0  0  0  0  0  3           0  0  0
    1.4056   -0.0000   -0.0000 N   0  0  0  0  0  3           0  0  0
   -2.5688    0.0123   -2.5056 N   0  0  0  0  0  3           0  0  0
   -2.0226    0.0093    1.1210 C   0  0  0  0  0  4           0  0  0
    4.2224   -0.0486    3.1504 C   0  0  0  0  0  4           0  0  0
    0.0000    0.0000    0.0000 C   0  0  0  0  0  4           0  0  0
   -1.9769   -0.0123   -1.2456 C   0  0  0  0  0  4           0  0  0
    2.3186   -0.0000    1.0576 C   0  0  0  0  0  4           0  0  0
   -2.7317    0.0094   -0.0745 C   0  0  0  0  0  4           0  0  0
    4.5145   -0.6382    1.9195 C   0  0  0  0  0  4           0  0  0
    2.9800    0.5635    3.3319 C   0  0  0  0  0  4           0  0  0
    3.5701   -0.6115    0.8864 C   0  0  0  0  0  4           0  0  0
    2.0386    0.5889    2.2979 C   0  0  0  0  0  4           0  0  0
   -4.1985    0.0458   -0.1117 C   0  0  0  0  0  4           0  0  0
   -2.0829    0.6895    3.4026 C   0  0  2  0  0  4           0  0  0
    6.3244   -0.6335    4.0462 C   0  0  0  0  0  4           0  0  0
   -1.2613   -0.3645    4.1388 C   0  0  0  0  0  4           0  0  0
   -3.1312    1.2965    4.3319 C   0  0  0  0  0  4           0  0  0
  1  8  1  0     0  0
  1 19  1  0     0  0
  2  9  1  0     0  0
  2 20  1  0     0  0
  3 18  2  0     0  0
  4  8  2  0     0  0
  4 10  1  0     0  0
  5 10  2  0     0  0
  5 11  1  0     0  0
  6 10  1  0     0  0
  6 12  1  0     0  0
  7 11  1  0     0  0
  8 13  1  0     0  0
  9 14  2  0     0  0
  9 15  1  0     0  0
 11 13  2  0     0  0
 12 16  2  0     0  0
 12 17  1  0     0  0
 13 18  1  0     0  0
 14 16  1  0     0  0
 15 17  2  0     0  0
 19 21  1  0     0  0
 19 22  1  0     0  0
M  END
> <Compound >
9

> <standard_type>
pIC50

> <# Confs.>
25

> <canonical_smiles>
CC(C)OC1=NC(NC2=CC=C(OC)C=C2)=NC(N)=C1C([H])=O

> <standard_relation>
=

> <predicted_activity_value>
5.541815564429737

> <actual_activity_value>
5.7447274948966935

> <Publication ID>
nan

> <standard_units>
nM

> hash
4021364287625090966

$$$$
9_
XXILIB    08252103513D 0   0.00000     0.00000

 22 23  0     1  0            999 V2000
   -2.7328    0.0327    2.3124 O   0  0  0  0  0  2           0  0  0
    5.0531    0.0058    4.2348 O   0  0  0  0  0  2           0  0  0
   -4.8214    0.0458   -1.1658 O   0  0  0  0  0  2           0  0  0
   -0.6711   -0.0000    1.1710 N   0  0  0  0  0  3           0  0  0
   -0.6205    0.0014   -1.2015 N   0  0  0  0  0  3           0  0  0
    1.4056    0.0000   -0.0000 N   0  0  0  0  0  3           0  0  0
   -2.5688    0.0123   -2.5056 N   0  0  0  0  0  3           0  0  0
   -2.0226    0.0093    1.1210 C   0  0  0  0  0  4           0  0  0
    4.1071   -0.0393    3.2500 C   0  0  0  0  0  4           0  0  0
    0.0000    0.0000    0.0000 C   0  0  0  0  0  4           0  0  0
   -1.9769   -0.0123   -1.2456 C   0  0  0  0  0  4           0  0  0
    2.3186    0.0000    1.0576 C   0  0  0  0  0  4           0  0  0
   -2.7317    0.0094   -0.0745 C   0  0  0  0  0  4           0  0  0
    2.8483   -0.6326    3.3578 C   0  0  0  0  0  4           0  0  0
    4.4684    0.5718    2.0470 C   0  0  0  0  0  4           0  0  0
    1.9666   -0.6115    2.2707 C   0  0  0  0  0  4           0  0  0
    3.5856    0.5910    0.9624 C   0  0  0  0  0  4           0  0  0
   -4.1985    0.0458   -0.1117 C   0  0  0  0  0  4           0  0  0
   -2.0925   -0.6005    3.4222 C   0  0  2  0  0  4           0  0  0
    4.6837   -0.6179    5.4626 C   0  0  0  0  0  4           0  0  0
   -3.1937   -1.1417    4.3291 C   0  0  0  0  0  4           0  0  0
   -1.2372    0.4199    4.1691 C   0  0  0  0  0  4           0  0  0
  1  8  1  0     0  0
  1 19  1  0     0  0
  2  9  1  0     0  0
  2 20  1  0     0  0
  3 18  2  0     0  0
  4  8  2  0     0  0
  4 10  1  0     0  0
  5 10  2  0     0  0
  5 11  1  0     0  0
  6 10  1  0     0  0
  6 12  1  0     0  0
  7 11  1  0     0  0
  8 13  1  0     0  0
  9 14  2  0     0  0
  9 15  1  0     0  0
 11 13  2  0     0  0
 12 16  2  0     0  0
 12 17  1  0     0  0
 13 18  1  0     0  0
 14 16  1  0     0  0
 15 17  2  0     0  0
 19 21  1  0     0  0
 19 22  1  0     0  0
M  END
> <Compound >
9

> <standard_type>
pIC50

> <# Confs.>
25

> <canonical_smiles>
CC(C)OC1=NC(NC2=CC=C(OC)C=C2)=NC(N)=C1C([H])=O

> <standard_relation>
=

> <predicted_activity_value>
5.541815564429737

> <actual_activity_value>
5.7447274948966935

> <Publication ID>
nan

> <standard_units>
nM

> hash
4021364287625090966

$$$$
9_
XXILIB    08252103513D 0   0.00000     0.00000

 22 23  0     1  0            999 V2000
   -2.7328    0.0327    2.3124 O   0  0  0  0  0  2           0  0  0
    5.0598   -2.1216    3.6583 O   0  0  0  0  0  2           0  0  0
   -4.8379   -0.4708   -1.0191 O   0  0  0  0  0  2           0  0  0
   -0.6711   -0.0000    1.1710 N   0  0  0  0  0  3           0  0  0
   -0.6205    0.0014   -1.2015 N   0  0  0  0  0  3           0  0  0
    1.4056    0.0000    0.0000 N   0  0  0  0  0  3           0  0  0
   -2.5688    0.0123   -2.5056 N   0  0  0  0  0  3           0  0  0
   -2.0226    0.0093    1.1210 C   0  0  0  0  0  4           0  0  0
    4.2334   -1.5751    2.7175 C   0  0  0  0  0  4           0  0  0
    0.0000    0.0000    0.0000 C   0  0  0  0  0  4           0  0  0
   -1.9769   -0.0123   -1.2456 C   0  0  0  0  0  4           0  0  0
    2.3186   -0.5288    0.9159 C   0  0  0  0  0  4           0  0  0
   -2.7317    0.0094   -0.0745 C   0  0  0  0  0  4           0  0  0
    4.6445   -0.9064    1.5634 C   0  0  0  0  0  4           0  0  0
    2.8667   -1.7190    2.9679 C   0  0  0  0  0  4           0  0  0
    3.6941   -0.3896    0.6749 C   0  0  0  0  0  4           0  0  0
    1.9194   -1.2014    2.0785 C   0  0  0  0  0  4           0  0  0
   -4.1985    0.0458   -0.1117 C   0  0  0  0  0  4           0  0  0
   -1.9393    0.0448    3.5009 C   0  0  2  0  0  4           0  0  0
    6.4547   -1.9747    3.4022 C   0  0  0  0  0  4           0  0  0
   -1.6999   -1.4089    3.8979 C   0  0  0  0  0  4           0  0  0
   -2.6865    0.7857    4.6069 C   0  0  0  0  0  4           0  0  0
  1  8  1  0     0  0
  1 19  1  0     0  0
  2  9  1  0     0  0
  2 20  1  0     0  0
  3 18  2  0     0  0
  4  8  2  0     0  0
  4 10  1  0     0  0
  5 10  2  0     0  0
  5 11  1  0     0  0
  6 10  1  0     0  0
  6 12  1  0     0  0
  7 11  1  0     0  0
  8 13  1  0     0  0
  9 14  2  0     0  0
  9 15  1  0     0  0
 11 13  2  0     0  0
 12 16  2  0     0  0
 12 17  1  0     0  0
 13 18  1  0     0  0
 14 16  1  0     0  0
 15 17  2  0     0  0
 19 21  1  0     0  0
 19 22  1  0     0  0
M  END
> <Compound >
9

> <standard_type>
pIC50

> <# Confs.>
25

> <canonical_smiles>
CC(C)OC1=NC(NC2=CC=C(OC)C=C2)=NC(N)=C1C([H])=O

> <standard_relation>
=

> <predicted_activity_value>
5.541815564429737

> <actual_activity_value>
5.7447274948966935

> <Publication ID>
nan

> <standard_units>
nM

> hash
4021364287625090966

$$$$
9_
XXILIB    08252103513D 0   0.00000     0.00000

 22 23  0     1  0            999 V2000
   -2.7328    0.0327    2.3124 O   0  0  0  0  0  2           0  0  0
    5.0593    2.1220    3.6586 O   0  0  0  0  0  2           0  0  0
   -4.8379   -0.4708   -1.0191 O   0  0  0  0  0  2           0  0  0
   -0.6711   -0.0000    1.1710 N   0  0  0  0  0  3           0  0  0
   -0.6205    0.0014   -1.2015 N   0  0  0  0  0  3           0  0  0
    1.4056   -0.0000    0.0000 N   0  0  0  0  0  3           0  0  0
   -2.5688    0.0123   -2.5056 N   0  0  0  0  0  3           0  0  0
   -2.0226    0.0093    1.1210 C   0  0  0  0  0  4           0  0  0
    4.1112    1.6654    2.7872 C   0  0  0  0  0  4           0  0  0
    0.0000    0.0000    0.0000 C   0  0  0  0  0  4           0  0  0
   -1.9769   -0.0123   -1.2456 C   0  0  0  0  0  4           0  0  0
    2.3186    0.5288    0.9159 C   0  0  0  0  0  4           0  0  0
   -2.7317    0.0094   -0.0745 C   0  0  0  0  0  4           0  0  0
    2.8507    2.2305    2.5871 C   0  0  0  0  0  4           0  0  0
    4.4720    0.5339    2.0518 C   0  0  0  0  0  4           0  0  0
    1.9666    1.6650    1.6607 C   0  0  0  0  0  4           0  0  0
    3.5865   -0.0292    1.1272 C   0  0  0  0  0  4           0  0  0
   -4.1985    0.0458   -0.1117 C   0  0  0  0  0  4           0  0  0
   -1.9393    0.0448    3.5009 C   0  0  2  0  0  4           0  0  0
    4.6905    3.2770    4.4089 C   0  0  0  0  0  4           0  0  0
   -2.7443   -0.6617    4.5876 C   0  0  0  0  0  4           0  0  0
   -1.6455    1.4874    3.9047 C   0  0  0  0  0  4           0  0  0
  1  8  1  0     0  0
  1 19  1  0     0  0
  2  9  1  0     0  0
  2 20  1  0     0  0
  3 18  2  0     0  0
  4  8  2  0     0  0
  4 10  1  0     0  0
  5 10  2  0     0  0
  5 11  1  0     0  0
  6 10  1  0     0  0
  6 12  1  0     0  0
  7 11  1  0     0  0
  8 13  1  0     0  0
  9 14  2  0     0  0
  9 15  1  0     0  0
 11 13  2  0     0  0
 12 16  2  0     0  0
 12 17  1  0     0  0
 13 18  1  0     0  0
 14 16  1  0     0  0
 15 17  2  0     0  0
 19 21  1  0     0  0
 19 22  1  0     0  0
M  END
> <Compound >
9

> <standard_type>
pIC50

> <# Confs.>
25

> <canonical_smiles>
CC(C)OC1=NC(NC2=CC=C(OC)C=C2)=NC(N)=C1C([H])=O

> <standard_relation>
=

> <predicted_activity_value>
5.541815564429737

> <actual_activity_value>
5.7447274948966935

> <Publication ID>
nan

> <standard_units>
nM

> hash
4021364287625090966

$$$$
9_
XXILIB    08252103513D 0   0.00000     0.00000

 22 23  0     1  0            999 V2000
   -2.7328    0.0327    2.3124 O   0  0  0  0  0  2           0  0  0
    5.0598   -0.0082    4.2290 O   0  0  0  0  0  2           0  0  0
   -4.8379   -0.4708   -1.0191 O   0  0  0  0  0  2           0  0  0
   -0.6711   -0.0000    1.1710 N   0  0  0  0  0  3           0  0  0
   -0.6205    0.0014   -1.2015 N   0  0  0  0  0  3           0  0  0
    1.4056    0.0000    0.0000 N   0  0  0  0  0  3           0  0  0
   -2.5688    0.0123   -2.5056 N   0  0  0  0  0  3           0  0  0
   -2.0226    0.0093    1.1210 C   0  0  0  0  0  4           0  0  0
    4.2334   -0.0054    3.1410 C   0  0  0  0  0  4           0  0  0
    0.0000    0.0000    0.0000 C   0  0  0  0  0  4           0  0  0
   -1.9769   -0.0123   -1.2456 C   0  0  0  0  0  4           0  0  0
    2.3186    0.0000    1.0576 C   0  0  0  0  0  4           0  0  0
   -2.7317    0.0094   -0.0745 C   0  0  0  0  0  4           0  0  0
    4.6445   -0.0032    1.8072 C   0  0  0  0  0  4           0  0  0
    2.8667   -0.0048    3.4297 C   0  0  0  0  0  4           0  0  0
    3.6941    0.0000    0.7793 C   0  0  0  0  0  4           0  0  0
    1.9194   -0.0012    2.4008 C   0  0  0  0  0  4           0  0  0
   -4.1985    0.0458   -0.1117 C   0  0  0  0  0  4           0  0  0
   -2.5017   -1.0733    3.1876 C   0  0  2  0  0  4           0  0  0
    6.4547   -0.0090    3.9337 C   0  0  0  0  0  4           0  0  0
   -3.8421   -1.7724    3.3941 C   0  0  0  0  0  4           0  0  0
   -1.9519   -0.5659    4.5183 C   0  0  0  0  0  4           0  0  0
  1  8  1  0     0  0
  1 19  1  0     0  0
  2  9  1  0     0  0
  2 20  1  0     0  0
  3 18  2  0     0  0
  4  8  2  0     0  0
  4 10  1  0     0  0
  5 10  2  0     0  0
  5 11  1  0     0  0
  6 10  1  0     0  0
  6 12  1  0     0  0
  7 11  1  0     0  0
  8 13  1  0     0  0
  9 14  2  0     0  0
  9 15  1  0     0  0
 11 13  2  0     0  0
 12 16  2  0     0  0
 12 17  1  0     0  0
 13 18  1  0     0  0
 14 16  1  0     0  0
 15 17  2  0     0  0
 19 21  1  0     0  0
 19 22  1  0     0  0
M  END
> <Compound >
9

> <standard_type>
pIC50

> <# Confs.>
25

> <canonical_smiles>
CC(C)OC1=NC(NC2=CC=C(OC)C=C2)=NC(N)=C1C([H])=O

> <standard_relation>
=

> <predicted_activity_value>
5.541815564429737

> <actual_activity_value>
5.7447274948966935

> <Publication ID>
nan

> <standard_units>
nM

> hash
4021364287625090966

$$$$
9_
XXILIB    08252103513D 0   0.00000     0.00000

 22 23  0     1  0            999 V2000
   -2.7328    0.0327    2.3124 O   0  0  0  0  0  2           0  0  0
    5.0531   -2.1123    3.6703 O   0  0  0  0  0  2           0  0  0
   -4.8379   -0.4708   -1.0191 O   0  0  0  0  0  2           0  0  0
   -0.6711   -0.0000    1.1710 N   0  0  0  0  0  3           0  0  0
   -0.6205    0.0014   -1.2015 N   0  0  0  0  0  3           0  0  0
    1.4056    0.0000   -0.0000 N   0  0  0  0  0  3           0  0  0
   -2.5688    0.0123   -2.5056 N   0  0  0  0  0  3           0  0  0
   -2.0226    0.0093    1.1210 C   0  0  0  0  0  4           0  0  0
    4.1071   -1.6591    2.7949 C   0  0  0  0  0  4           0  0  0
    0.0000    0.0000    0.0000 C   0  0  0  0  0  4           0  0  0
   -1.9769   -0.0123   -1.2456 C   0  0  0  0  0  4           0  0  0
    2.3186   -0.5288    0.9159 C   0  0  0  0  0  4           0  0  0
   -2.7317    0.0094   -0.0745 C   0  0  0  0  0  4           0  0  0
    2.8483   -2.2268    2.5916 C   0  0  0  0  0  4           0  0  0
    4.4684   -0.5283    2.0586 C   0  0  0  0  0  4           0  0  0
    1.9666   -1.6650    1.6607 C   0  0  0  0  0  4           0  0  0
    3.5856    0.0306    1.1290 C   0  0  0  0  0  4           0  0  0
   -4.1985    0.0458   -0.1117 C   0  0  0  0  0  4           0  0  0
   -1.9393    0.0448    3.5009 C   0  0  2  0  0  4           0  0  0
    4.6837   -3.2664    4.4218 C   0  0  0  0  0  4           0  0  0
   -2.7443   -0.6617    4.5876 C   0  0  0  0  0  4           0  0  0
   -1.6455    1.4874    3.9047 C   0  0  0  0  0  4           0  0  0
  1  8  1  0     0  0
  1 19  1  0     0  0
  2  9  1  0     0  0
  2 20  1  0     0  0
  3 18  2  0     0  0
  4  8  2  0     0  0
  4 10  1  0     0  0
  5 10  2  0     0  0
  5 11  1  0     0  0
  6 10  1  0     0  0
  6 12  1  0     0  0
  7 11  1  0     0  0
  8 13  1  0     0  0
  9 14  2  0     0  0
  9 15  1  0     0  0
 11 13  2  0     0  0
 12 16  2  0     0  0
 12 17  1  0     0  0
 13 18  1  0     0  0
 14 16  1  0     0  0
 15 17  2  0     0  0
 19 21  1  0     0  0
 19 22  1  0     0  0
M  END
> <Compound >
9

> <standard_type>
pIC50

> <# Confs.>
25

> <canonical_smiles>
CC(C)OC1=NC(NC2=CC=C(OC)C=C2)=NC(N)=C1C([H])=O

> <standard_relation>
=

> <predicted_activity_value>
5.541815564429737

> <actual_activity_value>
5.7447274948966935

> <Publication ID>
nan

> <standard_units>
nM

> hash
4021364287625090966

$$$$
9_
XXILIB    08252103513D 0   0.00000     0.00000

 22 23  0     1  0            999 V2000
   -2.7328    0.0327    2.3124 O   0  0  0  0  0  2           0  0  0
    5.0598    2.1074    3.6665 O   0  0  0  0  0  2           0  0  0
   -4.8214    0.0458   -1.1658 O   0  0  0  0  0  2           0  0  0
   -0.6711   -0.0000    1.1710 N   0  0  0  0  0  3           0  0  0
   -0.6205    0.0014   -1.2015 N   0  0  0  0  0  3           0  0  0
    1.4056    0.0000   -0.0000 N   0  0  0  0  0  3           0  0  0
   -2.5688    0.0123   -2.5056 N   0  0  0  0  0  3           0  0  0
   -2.0226    0.0093    1.1210 C   0  0  0  0  0  4           0  0  0
    4.2334    1.5659    2.7228 C   0  0  0  0  0  4           0  0  0
    0.0000    0.0000    0.0000 C   0  0  0  0  0  4           0  0  0
   -1.9769   -0.0123   -1.2456 C   0  0  0  0  0  4           0  0  0
    2.3186    0.5288    0.9159 C   0  0  0  0  0  4           0  0  0
   -2.7317    0.0094   -0.0745 C   0  0  0  0  0  4           0  0  0
    4.6445    0.9008    1.5667 C   0  0  0  0  0  4           0  0  0
    2.8667    1.7107    2.9726 C   0  0  0  0  0  4           0  0  0
    3.6941    0.3896    0.6749 C   0  0  0  0  0  4           0  0  0
    1.9194    1.1994    2.0797 C   0  0  0  0  0  4           0  0  0
   -4.1985    0.0458   -0.1117 C   0  0  0  0  0  4           0  0  0
   -1.9393    0.0448    3.5009 C   0  0  2  0  0  4           0  0  0
    6.4547    1.9591    3.4112 C   0  0  0  0  0  4           0  0  0
   -1.6999   -1.4089    3.8979 C   0  0  0  0  0  4           0  0  0
   -2.6865    0.7857    4.6069 C   0  0  0  0  0  4           0  0  0
  1  8  1  0     0  0
  1 19  1  0     0  0
  2  9  1  0     0  0
  2 20  1  0     0  0
  3 18  2  0     0  0
  4  8  2  0     0  0
  4 10  1  0     0  0
  5 10  2  0     0  0
  5 11  1  0     0  0
  6 10  1  0     0  0
  6 12  1  0     0  0
  7 11  1  0     0  0
  8 13  1  0     0  0
  9 14  2  0     0  0
  9 15  1  0     0  0
 11 13  2  0     0  0
 12 16  2  0     0  0
 12 17  1  0     0  0
 13 18  1  0     0  0
 14 16  1  0     0  0
 15 17  2  0     0  0
 19 21  1  0     0  0
 19 22  1  0     0  0
M  END
> <Compound >
9

> <standard_type>
pIC50

> <# Confs.>
25

> <canonical_smiles>
CC(C)OC1=NC(NC2=CC=C(OC)C=C2)=NC(N)=C1C([H])=O

> <standard_relation>
=

> <predicted_activity_value>
5.541815564429737

> <actual_activity_value>
5.7447274948966935

> <Publication ID>
nan

> <standard_units>
nM

> hash
4021364287625090966

$$$$
9_
XXILIB    08252103513D 0   0.00000     0.00000

 22 23  0     1  0            999 V2000
   -2.7328    0.0327    2.3124 O   0  0  0  0  0  2           0  0  0
    5.0531   -0.0058   -4.2348 O   0  0  0  0  0  2           0  0  0
   -4.8379   -0.4708   -1.0191 O   0  0  0  0  0  2           0  0  0
   -0.6711   -0.0000    1.1710 N   0  0  0  0  0  3           0  0  0
   -0.6205    0.0014   -1.2015 N   0  0  0  0  0  3           0  0  0
    1.4056   -0.0000    0.0000 N   0  0  0  0  0  3           0  0  0
   -2.5688    0.0123   -2.5056 N   0  0  0  0  0  3           0  0  0
   -2.0226    0.0093    1.1210 C   0  0  0  0  0  4           0  0  0
    4.1071    0.0393   -3.2500 C   0  0  0  0  0  4           0  0  0
    0.0000    0.0000    0.0000 C   0  0  0  0  0  4           0  0  0
   -1.9769   -0.0123   -1.2456 C   0  0  0  0  0  4           0  0  0
    2.3186    0.0000   -1.0576 C   0  0  0  0  0  4           0  0  0
   -2.7317    0.0094   -0.0745 C   0  0  0  0  0  4           0  0  0
    2.8483    0.6326   -3.3578 C   0  0  0  0  0  4           0  0  0
    4.4684   -0.5718   -2.0470 C   0  0  0  0  0  4           0  0  0
    1.9666    0.6115   -2.2707 C   0  0  0  0  0  4           0  0  0
    3.5856   -0.5910   -0.9624 C   0  0  0  0  0  4           0  0  0
   -4.1985    0.0458   -0.1117 C   0  0  0  0  0  4           0  0  0
   -1.9393    0.0448    3.5009 C   0  0  2  0  0  4           0  0  0
    4.6837    0.6179   -5.4626 C   0  0  0  0  0  4           0  0  0
   -1.6999   -1.4089    3.8979 C   0  0  0  0  0  4           0  0  0
   -2.6865    0.7857    4.6069 C   0  0  0  0  0  4           0  0  0
  1  8  1  0     0  0
  1 19  1  0     0  0
  2  9  1  0     0  0
  2 20  1  0     0  0
  3 18  2  0     0  0
  4  8  2  0     0  0
  4 10  1  0     0  0
  5 10  2  0     0  0
  5 11  1  0     0  0
  6 10  1  0     0  0
  6 12  1  0     0  0
  7 11  1  0     0  0
  8 13  1  0     0  0
  9 14  2  0     0  0
  9 15  1  0     0  0
 11 13  2  0     0  0
 12 16  2  0     0  0
 12 17  1  0     0  0
 13 18  1  0     0  0
 14 16  1  0     0  0
 15 17  2  0     0  0
 19 21  1  0     0  0
 19 22  1  0     0  0
M  END
> <Compound >
9

> <standard_type>
pIC50

> <# Confs.>
25

> <canonical_smiles>
CC(C)OC1=NC(NC2=CC=C(OC)C=C2)=NC(N)=C1C([H])=O

> <standard_relation>
=

> <predicted_activity_value>
5.541815564429737

> <actual_activity_value>
5.7447274948966935

> <Publication ID>
nan

> <standard_units>
nM

> hash
4021364287625090966

$$$$
9_
XXILIB    08252103513D 0   0.00000     0.00000

 22 23  0     1  0            999 V2000
   -2.7328    0.0327    2.3124 O   0  0  0  0  0  2           0  0  0
    5.0626   -0.0058    4.2265 O   0  0  0  0  0  2           0  0  0
   -4.8214    0.0458   -1.1658 O   0  0  0  0  0  2           0  0  0
   -0.6711   -0.0000    1.1710 N   0  0  0  0  0  3           0  0  0
   -0.6205    0.0014   -1.2015 N   0  0  0  0  0  3           0  0  0
    1.4056    0.0000    0.0000 N   0  0  0  0  0  3           0  0  0
   -2.5688    0.0123   -2.5056 N   0  0  0  0  0  3           0  0  0
   -2.0226    0.0093    1.1210 C   0  0  0  0  0  4           0  0  0
    4.2265    0.0393    3.1469 C   0  0  0  0  0  4           0  0  0
    0.0000    0.0000    0.0000 C   0  0  0  0  0  4           0  0  0
   -1.9769   -0.0123   -1.2456 C   0  0  0  0  0  4           0  0  0
    2.3186    0.0000    1.0576 C   0  0  0  0  0  4           0  0  0
   -2.7317    0.0094   -0.0745 C   0  0  0  0  0  4           0  0  0
    4.5169    0.6326    1.9174 C   0  0  0  0  0  4           0  0  0
    2.9836   -0.5718    3.3288 C   0  0  0  0  0  4           0  0  0
    3.5701    0.6115    0.8864 C   0  0  0  0  0  4           0  0  0
    2.0395   -0.5910    2.2971 C   0  0  0  0  0  4           0  0  0
   -4.1985    0.0458   -0.1117 C   0  0  0  0  0  4           0  0  0
   -2.4851    1.1611    3.1537 C   0  0  2  0  0  4           0  0  0
    6.3312    0.6179    4.0403 C   0  0  0  0  0  4           0  0  0
   -1.9461    0.6267    4.4773 C   0  0  0  0  0  4           0  0  0
   -3.7860    1.9283    3.3760 C   0  0  0  0  0  4           0  0  0
  1  8  1  0     0  0
  1 19  1  0     0  0
  2  9  1  0     0  0
  2 20  1  0     0  0
  3 18  2  0     0  0
  4  8  2  0     0  0
  4 10  1  0     0  0
  5 10  2  0     0  0
  5 11  1  0     0  0
  6 10  1  0     0  0
  6 12  1  0     0  0
  7 11  1  0     0  0
  8 13  1  0     0  0
  9 14  2  0     0  0
  9 15  1  0     0  0
 11 13  2  0     0  0
 12 16  2  0     0  0
 12 17  1  0     0  0
 13 18  1  0     0  0
 14 16  1  0     0  0
 15 17  2  0     0  0
 19 21  1  0     0  0
 19 22  1  0     0  0
M  END
> <Compound >
9

> <standard_type>
pIC50

> <# Confs.>
25

> <canonical_smiles>
CC(C)OC1=NC(NC2=CC=C(OC)C=C2)=NC(N)=C1C([H])=O

> <standard_relation>
=

> <predicted_activity_value>
5.541815564429737

> <actual_activity_value>
5.7447274948966935

> <Publication ID>
nan

> <standard_units>
nM

> hash
4021364287625090966

$$$$
9_
XXILIB    08252103513D 0   0.00000     0.00000

 22 23  0     1  0            999 V2000
   -2.7328    0.0327    2.3124 O   0  0  0  0  0  2           0  0  0
    5.0593   -0.0084   -4.2294 O   0  0  0  0  0  2           0  0  0
   -4.8379   -0.4708   -1.0191 O   0  0  0  0  0  2           0  0  0
   -0.6711   -0.0000    1.1710 N   0  0  0  0  0  3           0  0  0
   -0.6205    0.0014   -1.2015 N   0  0  0  0  0  3           0  0  0
    1.4056    0.0000    0.0000 N   0  0  0  0  0  3           0  0  0
   -2.5688    0.0123   -2.5056 N   0  0  0  0  0  3           0  0  0
   -2.0226    0.0093    1.1210 C   0  0  0  0  0  4           0  0  0
    4.1112   -0.0486   -3.2465 C   0  0  0  0  0  4           0  0  0
    0.0000    0.0000    0.0000 C   0  0  0  0  0  4           0  0  0
   -1.9769   -0.0123   -1.2456 C   0  0  0  0  0  4           0  0  0
    2.3186    0.0000   -1.0576 C   0  0  0  0  0  4           0  0  0
   -2.7317    0.0094   -0.0745 C   0  0  0  0  0  4           0  0  0
    2.8507   -0.6382   -3.3557 C   0  0  0  0  0  4           0  0  0
    4.4720    0.5635   -2.0439 C   0  0  0  0  0  4           0  0  0
    1.9666   -0.6115   -2.2707 C   0  0  0  0  0  4           0  0  0
    3.5865    0.5889   -0.9616 C   0  0  0  0  0  4           0  0  0
   -4.1985    0.0458   -0.1117 C   0  0  0  0  0  4           0  0  0
   -1.9393    0.0448    3.5009 C   0  0  2  0  0  4           0  0  0
    4.6905   -0.6335   -5.4567 C   0  0  0  0  0  4           0  0  0
   -1.6999   -1.4089    3.8979 C   0  0  0  0  0  4           0  0  0
   -2.6865    0.7857    4.6069 C   0  0  0  0  0  4           0  0  0
  1  8  1  0     0  0
  1 19  1  0     0  0
  2  9  1  0     0  0
  2 20  1  0     0  0
  3 18  2  0     0  0
  4  8  2  0     0  0
  4 10  1  0     0  0
  5 10  2  0     0  0
  5 11  1  0     0  0
  6 10  1  0     0  0
  6 12  1  0     0  0
  7 11  1  0     0  0
  8 13  1  0     0  0
  9 14  2  0     0  0
  9 15  1  0     0  0
 11 13  2  0     0  0
 12 16  2  0     0  0
 12 17  1  0     0  0
 13 18  1  0     0  0
 14 16  1  0     0  0
 15 17  2  0     0  0
 19 21  1  0     0  0
 19 22  1  0     0  0
M  END
> <Compound >
9

> <standard_type>
pIC50

> <# Confs.>
25

> <canonical_smiles>
CC(C)OC1=NC(NC2=CC=C(OC)C=C2)=NC(N)=C1C([H])=O

> <standard_relation>
=

> <predicted_activity_value>
5.541815564429737

> <actual_activity_value>
5.7447274948966935

> <Publication ID>
nan

> <standard_units>
nM

> hash
4021364287625090966

$$$$
9_
XXILIB    08252103513D 0   0.00000     0.00000

 22 23  0     1  0            999 V2000
   -2.7328    0.0327    2.3124 O   0  0  0  0  0  2           0  0  0
    5.0564    2.1087    3.6691 O   0  0  0  0  0  2           0  0  0
   -4.8379   -0.4708   -1.0191 O   0  0  0  0  0  2           0  0  0
   -0.6711   -0.0000    1.1710 N   0  0  0  0  0  3           0  0  0
   -0.6205    0.0014   -1.2015 N   0  0  0  0  0  3           0  0  0
    1.4056   -0.0000   -0.0000 N   0  0  0  0  0  3           0  0  0
   -2.5688    0.0123   -2.5056 N   0  0  0  0  0  3           0  0  0
   -2.0226    0.0093    1.1210 C   0  0  0  0  0  4           0  0  0
    4.2224    1.5331    2.7527 C   0  0  0  0  0  4           0  0  0
    0.0000    0.0000    0.0000 C   0  0  0  0  0  4           0  0  0
   -1.9769   -0.0123   -1.2456 C   0  0  0  0  0  4           0  0  0
    2.3186    0.5288    0.9159 C   0  0  0  0  0  4           0  0  0
   -2.7317    0.0094   -0.0745 C   0  0  0  0  0  4           0  0  0
    4.5145    0.4071    1.9814 C   0  0  0  0  0  4           0  0  0
    2.9800    2.1540    2.6038 C   0  0  0  0  0  4           0  0  0
    3.5701   -0.0864    1.0734 C   0  0  0  0  0  4           0  0  0
    2.0386    1.6590    1.6955 C   0  0  0  0  0  4           0  0  0
   -4.1985    0.0458   -0.1117 C   0  0  0  0  0  4           0  0  0
   -2.0925   -0.6005    3.4222 C   0  0  2  0  0  4           0  0  0
    6.3244    1.4745    3.8209 C   0  0  0  0  0  4           0  0  0
   -3.1937   -1.1417    4.3291 C   0  0  0  0  0  4           0  0  0
   -1.2372    0.4199    4.1691 C   0  0  0  0  0  4           0  0  0
  1  8  1  0     0  0
  1 19  1  0     0  0
  2  9  1  0     0  0
  2 20  1  0     0  0
  3 18  2  0     0  0
  4  8  2  0     0  0
  4 10  1  0     0  0
  5 10  2  0     0  0
  5 11  1  0     0  0
  6 10  1  0     0  0
  6 12  1  0     0  0
  7 11  1  0     0  0
  8 13  1  0     0  0
  9 14  2  0     0  0
  9 15  1  0     0  0
 11 13  2  0     0  0
 12 16  2  0     0  0
 12 17  1  0     0  0
 13 18  1  0     0  0
 14 16  1  0     0  0
 15 17  2  0     0  0
 19 21  1  0     0  0
 19 22  1  0     0  0
M  END
> <Compound >
9

> <standard_type>
pIC50

> <# Confs.>
25

> <canonical_smiles>
CC(C)OC1=NC(NC2=CC=C(OC)C=C2)=NC(N)=C1C([H])=O

> <standard_relation>
=

> <predicted_activity_value>
5.541815564429737

> <actual_activity_value>
5.7447274948966935

> <Publication ID>
nan

> <standard_units>
nM

> hash
4021364287625090966

$$$$
9_
XXILIB    08252103513D 0   0.00000     0.00000

 22 23  0     1  0            999 V2000
   -2.7328    0.0327    2.3124 O   0  0  0  0  0  2           0  0  0
    5.0626    0.0058   -4.2265 O   0  0  0  0  0  2           0  0  0
   -4.8214    0.0458   -1.1658 O   0  0  0  0  0  2           0  0  0
   -0.6711   -0.0000    1.1710 N   0  0  0  0  0  3           0  0  0
   -0.6205    0.0014   -1.2015 N   0  0  0  0  0  3           0  0  0
    1.4056   -0.0000   -0.0000 N   0  0  0  0  0  3           0  0  0
   -2.5688    0.0123   -2.5056 N   0  0  0  0  0  3           0  0  0
   -2.0226    0.0093    1.1210 C   0  0  0  0  0  4           0  0  0
    4.2265   -0.0393   -3.1469 C   0  0  0  0  0  4           0  0  0
    0.0000    0.0000    0.0000 C   0  0  0  0  0  4           0  0  0
   -1.9769   -0.0123   -1.2456 C   0  0  0  0  0  4           0  0  0
    2.3186    0.0000   -1.0576 C   0  0  0  0  0  4           0  0  0
   -2.7317    0.0094   -0.0745 C   0  0  0  0  0  4           0  0  0
    4.5169   -0.6326   -1.9174 C   0  0  0  0  0  4           0  0  0
    2.9836    0.5718   -3.3288 C   0  0  0  0  0  4           0  0  0
    3.5701   -0.6115   -0.8864 C   0  0  0  0  0  4           0  0  0
    2.0395    0.5910   -2.2971 C   0  0  0  0  0  4           0  0  0
   -4.1985    0.0458   -0.1117 C   0  0  0  0  0  4           0  0  0
   -2.0829    0.6895    3.4026 C   0  0  2  0  0  4           0  0  0
    6.3312   -0.6179   -4.0403 C   0  0  0  0  0  4           0  0  0
   -1.2613   -0.3645    4.1388 C   0  0  0  0  0  4           0  0  0
   -3.1312    1.2965    4.3319 C   0  0  0  0  0  4           0  0  0
  1  8  1  0     0  0
  1 19  1  0     0  0
  2  9  1  0     0  0
  2 20  1  0     0  0
  3 18  2  0     0  0
  4  8  2  0     0  0
  4 10  1  0     0  0
  5 10  2  0     0  0
  5 11  1  0     0  0
  6 10  1  0     0  0
  6 12  1  0     0  0
  7 11  1  0     0  0
  8 13  1  0     0  0
  9 14  2  0     0  0
  9 15  1  0     0  0
 11 13  2  0     0  0
 12 16  2  0     0  0
 12 17  1  0     0  0
 13 18  1  0     0  0
 14 16  1  0     0  0
 15 17  2  0     0  0
 19 21  1  0     0  0
 19 22  1  0     0  0
M  END
> <Compound >
9

> <standard_type>
pIC50

> <# Confs.>
25

> <canonical_smiles>
CC(C)OC1=NC(NC2=CC=C(OC)C=C2)=NC(N)=C1C([H])=O

> <standard_relation>
=

> <predicted_activity_value>
5.541815564429737

> <actual_activity_value>
5.7447274948966935

> <Publication ID>
nan

> <standard_units>
nM

> hash
4021364287625090966

$$$$
9_
XXILIB    08252103513D 0   0.00000     0.00000

 22 23  0     1  0            999 V2000
   -2.7328    0.0327    2.3124 O   0  0  0  0  0  2           0  0  0
    5.0564    0.0084   -4.2319 O   0  0  0  0  0  2           0  0  0
   -4.8214    0.0458   -1.1658 O   0  0  0  0  0  2           0  0  0
   -0.6711   -0.0000    1.1710 N   0  0  0  0  0  3           0  0  0
   -0.6205    0.0014   -1.2015 N   0  0  0  0  0  3           0  0  0
    1.4056    0.0000    0.0000 N   0  0  0  0  0  3           0  0  0
   -2.5688    0.0123   -2.5056 N   0  0  0  0  0  3           0  0  0
   -2.0226    0.0093    1.1210 C   0  0  0  0  0  4           0  0  0
    4.2224    0.0486   -3.1504 C   0  0  0  0  0  4           0  0  0
    0.0000    0.0000    0.0000 C   0  0  0  0  0  4           0  0  0
   -1.9769   -0.0123   -1.2456 C   0  0  0  0  0  4           0  0  0
    2.3186    0.0000   -1.0576 C   0  0  0  0  0  4           0  0  0
   -2.7317    0.0094   -0.0745 C   0  0  0  0  0  4           0  0  0
    4.5145    0.6382   -1.9195 C   0  0  0  0  0  4           0  0  0
    2.9800   -0.5635   -3.3319 C   0  0  0  0  0  4           0  0  0
    3.5701    0.6115   -0.8864 C   0  0  0  0  0  4           0  0  0
    2.0386   -0.5889   -2.2979 C   0  0  0  0  0  4           0  0  0
   -4.1985    0.0458   -0.1117 C   0  0  0  0  0  4           0  0  0
   -2.0829    0.6895    3.4026 C   0  0  2  0  0  4           0  0  0
    6.3244    0.6335   -4.0462 C   0  0  0  0  0  4           0  0  0
   -1.2613   -0.3645    4.1388 C   0  0  0  0  0  4           0  0  0
   -3.1312    1.2965    4.3319 C   0  0  0  0  0  4           0  0  0
  1  8  1  0     0  0
  1 19  1  0     0  0
  2  9  1  0     0  0
  2 20  1  0     0  0
  3 18  2  0     0  0
  4  8  2  0     0  0
  4 10  1  0     0  0
  5 10  2  0     0  0
  5 11  1  0     0  0
  6 10  1  0     0  0
  6 12  1  0     0  0
  7 11  1  0     0  0
  8 13  1  0     0  0
  9 14  2  0     0  0
  9 15  1  0     0  0
 11 13  2  0     0  0
 12 16  2  0     0  0
 12 17  1  0     0  0
 13 18  1  0     0  0
 14 16  1  0     0  0
 15 17  2  0     0  0
 19 21  1  0     0  0
 19 22  1  0     0  0
M  END
> <Compound >
9

> <standard_type>
pIC50

> <# Confs.>
25

> <canonical_smiles>
CC(C)OC1=NC(NC2=CC=C(OC)C=C2)=NC(N)=C1C([H])=O

> <standard_relation>
=

> <predicted_activity_value>
5.541815564429737

> <actual_activity_value>
5.7447274948966935

> <Publication ID>
nan

> <standard_units>
nM

> hash
4021364287625090966

$$$$
9_
XXILIB    08252103513D 0   0.00000     0.00000

 22 23  0     1  0            999 V2000
   -2.7328    0.0327    2.3124 O   0  0  0  0  0  2           0  0  0
    5.0593    0.0084    4.2294 O   0  0  0  0  0  2           0  0  0
   -4.8214    0.0458   -1.1658 O   0  0  0  0  0  2           0  0  0
   -0.6711   -0.0000    1.1710 N   0  0  0  0  0  3           0  0  0
   -0.6205    0.0014   -1.2015 N   0  0  0  0  0  3           0  0  0
    1.4056   -0.0000    0.0000 N   0  0  0  0  0  3           0  0  0
   -2.5688    0.0123   -2.5056 N   0  0  0  0  0  3           0  0  0
   -2.0226    0.0093    1.1210 C   0  0  0  0  0  4           0  0  0
    4.1112    0.0486    3.2465 C   0  0  0  0  0  4           0  0  0
    0.0000    0.0000    0.0000 C   0  0  0  0  0  4           0  0  0
   -1.9769   -0.0123   -1.2456 C   0  0  0  0  0  4           0  0  0
    2.3186   -0.0000    1.0576 C   0  0  0  0  0  4           0  0  0
   -2.7317    0.0094   -0.0745 C   0  0  0  0  0  4           0  0  0
    2.8507    0.6382    3.3557 C   0  0  0  0  0  4           0  0  0
    4.4720   -0.5635    2.0439 C   0  0  0  0  0  4           0  0  0
    1.9666    0.6115    2.2707 C   0  0  0  0  0  4           0  0  0
    3.5865   -0.5889    0.9616 C   0  0  0  0  0  4           0  0  0
   -4.1985    0.0458   -0.1117 C   0  0  0  0  0  4           0  0  0
   -2.0829    0.6895    3.4026 C   0  0  2  0  0  4           0  0  0
    4.6905    0.6335    5.4567 C   0  0  0  0  0  4           0  0  0
   -3.0205    0.6047    4.6034 C   0  0  0  0  0  4           0  0  0
   -1.8146    2.1467    3.0348 C   0  0  0  0  0  4           0  0  0
  1  8  1  0     0  0
  1 19  1  0     0  0
  2  9  1  0     0  0
  2 20  1  0     0  0
  3 18  2  0     0  0
  4  8  2  0     0  0
  4 10  1  0     0  0
  5 10  2  0     0  0
  5 11  1  0     0  0
  6 10  1  0     0  0
  6 12  1  0     0  0
  7 11  1  0     0  0
  8 13  1  0     0  0
  9 14  2  0     0  0
  9 15  1  0     0  0
 11 13  2  0     0  0
 12 16  2  0     0  0
 12 17  1  0     0  0
 13 18  1  0     0  0
 14 16  1  0     0  0
 15 17  2  0     0  0
 19 21  1  0     0  0
 19 22  1  0     0  0
M  END
> <Compound >
9

> <standard_type>
pIC50

> <# Confs.>
25

> <canonical_smiles>
CC(C)OC1=NC(NC2=CC=C(OC)C=C2)=NC(N)=C1C([H])=O

> <standard_relation>
=

> <predicted_activity_value>
5.541815564429737

> <actual_activity_value>
5.7447274948966935

> <Publication ID>
nan

> <standard_units>
nM

> hash
4021364287625090966

$$$$
9_
XXILIB    08252103513D 0   0.00000     0.00000

 22 23  0     1  0            999 V2000
   -2.7328    0.0327    2.3124 O   0  0  0  0  0  2           0  0  0
    5.0626   -0.0058    4.2265 O   0  0  0  0  0  2           0  0  0
   -4.8214    0.0458   -1.1658 O   0  0  0  0  0  2           0  0  0
   -0.6711   -0.0000    1.1710 N   0  0  0  0  0  3           0  0  0
   -0.6205    0.0014   -1.2015 N   0  0  0  0  0  3           0  0  0
    1.4056    0.0000    0.0000 N   0  0  0  0  0  3           0  0  0
   -2.5688    0.0123   -2.5056 N   0  0  0  0  0  3           0  0  0
   -2.0226    0.0093    1.1210 C   0  0  0  0  0  4           0  0  0
    4.2265    0.0393    3.1469 C   0  0  0  0  0  4           0  0  0
    0.0000    0.0000    0.0000 C   0  0  0  0  0  4           0  0  0
   -1.9769   -0.0123   -1.2456 C   0  0  0  0  0  4           0  0  0
    2.3186    0.0000    1.0576 C   0  0  0  0  0  4           0  0  0
   -2.7317    0.0094   -0.0745 C   0  0  0  0  0  4           0  0  0
    4.5169    0.6326    1.9174 C   0  0  0  0  0  4           0  0  0
    2.9836   -0.5718    3.3288 C   0  0  0  0  0  4           0  0  0
    3.5701    0.6115    0.8864 C   0  0  0  0  0  4           0  0  0
    2.0395   -0.5910    2.2971 C   0  0  0  0  0  4           0  0  0
   -4.1985    0.0458   -0.1117 C   0  0  0  0  0  4           0  0  0
   -2.0925   -0.6005    3.4222 C   0  0  2  0  0  4           0  0  0
    6.3312    0.6179    4.0403 C   0  0  0  0  0  4           0  0  0
   -1.8720   -2.0616    3.0419 C   0  0  0  0  0  4           0  0  0
   -2.9868   -0.4973    4.6552 C   0  0  0  0  0  4           0  0  0
  1  8  1  0     0  0
  1 19  1  0     0  0
  2  9  1  0     0  0
  2 20  1  0     0  0
  3 18  2  0     0  0
  4  8  2  0     0  0
  4 10  1  0     0  0
  5 10  2  0     0  0
  5 11  1  0     0  0
  6 10  1  0     0  0
  6 12  1  0     0  0
  7 11  1  0     0  0
  8 13  1  0     0  0
  9 14  2  0     0  0
  9 15  1  0     0  0
 11 13  2  0     0  0
 12 16  2  0     0  0
 12 17  1  0     0  0
 13 18  1  0     0  0
 14 16  1  0     0  0
 15 17  2  0     0  0
 19 21  1  0     0  0
 19 22  1  0     0  0
M  END
> <Compound >
9

> <standard_type>
pIC50

> <# Confs.>
25

> <canonical_smiles>
CC(C)OC1=NC(NC2=CC=C(OC)C=C2)=NC(N)=C1C([H])=O

> <standard_relation>
=

> <predicted_activity_value>
5.541815564429737

> <actual_activity_value>
5.7447274948966935

> <Publication ID>
nan

> <standard_units>
nM

> hash
4021364287625090966

$$$$
9_
XXILIB    08252103513D 0   0.00000     0.00000

 22 23  0     1  0            999 V2000
   -2.7328    0.0327    2.3124 O   0  0  0  0  0  2           0  0  0
    5.0593    0.0084    4.2294 O   0  0  0  0  0  2           0  0  0
   -4.8379   -0.4708   -1.0191 O   0  0  0  0  0  2           0  0  0
   -0.6711   -0.0000    1.1710 N   0  0  0  0  0  3           0  0  0
   -0.6205    0.0014   -1.2015 N   0  0  0  0  0  3           0  0  0
    1.4056   -0.0000    0.0000 N   0  0  0  0  0  3           0  0  0
   -2.5688    0.0123   -2.5056 N   0  0  0  0  0  3           0  0  0
   -2.0226    0.0093    1.1210 C   0  0  0  0  0  4           0  0  0
    4.1112    0.0486    3.2465 C   0  0  0  0  0  4           0  0  0
    0.0000    0.0000    0.0000 C   0  0  0  0  0  4           0  0  0
   -1.9769   -0.0123   -1.2456 C   0  0  0  0  0  4           0  0  0
    2.3186   -0.0000    1.0576 C   0  0  0  0  0  4           0  0  0
   -2.7317    0.0094   -0.0745 C   0  0  0  0  0  4           0  0  0
    2.8507    0.6382    3.3557 C   0  0  0  0  0  4           0  0  0
    4.4720   -0.5635    2.0439 C   0  0  0  0  0  4           0  0  0
    1.9666    0.6115    2.2707 C   0  0  0  0  0  4           0  0  0
    3.5865   -0.5889    0.9616 C   0  0  0  0  0  4           0  0  0
   -4.1985    0.0458   -0.1117 C   0  0  0  0  0  4           0  0  0
   -2.5017   -1.0733    3.1876 C   0  0  2  0  0  4           0  0  0
    4.6905    0.6335    5.4567 C   0  0  0  0  0  4           0  0  0
   -3.5186   -2.1526    2.8282 C   0  0  0  0  0  4           0  0  0
   -2.6847   -0.6261    4.6357 C   0  0  0  0  0  4           0  0  0
  1  8  1  0     0  0
  1 19  1  0     0  0
  2  9  1  0     0  0
  2 20  1  0     0  0
  3 18  2  0     0  0
  4  8  2  0     0  0
  4 10  1  0     0  0
  5 10  2  0     0  0
  5 11  1  0     0  0
  6 10  1  0     0  0
  6 12  1  0     0  0
  7 11  1  0     0  0
  8 13  1  0     0  0
  9 14  2  0     0  0
  9 15  1  0     0  0
 11 13  2  0     0  0
 12 16  2  0     0  0
 12 17  1  0     0  0
 13 18  1  0     0  0
 14 16  1  0     0  0
 15 17  2  0     0  0
 19 21  1  0     0  0
 19 22  1  0     0  0
M  END
> <Compound >
9

> <standard_type>
pIC50

> <# Confs.>
25

> <canonical_smiles>
CC(C)OC1=NC(NC2=CC=C(OC)C=C2)=NC(N)=C1C([H])=O

> <standard_relation>
=

> <predicted_activity_value>
5.541815564429737

> <actual_activity_value>
5.7447274948966935

> <Publication ID>
nan

> <standard_units>
nM

> hash
4021364287625090966

$$$$
9_
XXILIB    08252103513D 0   0.00000     0.00000

 22 23  0     1  0            999 V2000
   -2.7328    0.0327    2.3124 O   0  0  0  0  0  2           0  0  0
    5.0598   -2.1216    3.6583 O   0  0  0  0  0  2           0  0  0
   -4.8379   -0.4708   -1.0191 O   0  0  0  0  0  2           0  0  0
   -0.6711   -0.0000    1.1710 N   0  0  0  0  0  3           0  0  0
   -0.6205    0.0014   -1.2015 N   0  0  0  0  0  3           0  0  0
    1.4056    0.0000    0.0000 N   0  0  0  0  0  3           0  0  0
   -2.5688    0.0123   -2.5056 N   0  0  0  0  0  3           0  0  0
   -2.0226    0.0093    1.1210 C   0  0  0  0  0  4           0  0  0
    4.2334   -1.5751    2.7175 C   0  0  0  0  0  4           0  0  0
    0.0000    0.0000    0.0000 C   0  0  0  0  0  4           0  0  0
   -1.9769   -0.0123   -1.2456 C   0  0  0  0  0  4           0  0  0
    2.3186   -0.5288    0.9159 C   0  0  0  0  0  4           0  0  0
   -2.7317    0.0094   -0.0745 C   0  0  0  0  0  4           0  0  0
    4.6445   -0.9064    1.5634 C   0  0  0  0  0  4           0  0  0
    2.8667   -1.7190    2.9679 C   0  0  0  0  0  4           0  0  0
    3.6941   -0.3896    0.6749 C   0  0  0  0  0  4           0  0  0
    1.9194   -1.2014    2.0785 C   0  0  0  0  0  4           0  0  0
   -4.1985    0.0458   -0.1117 C   0  0  0  0  0  4           0  0  0
   -2.0829    0.6895    3.4026 C   0  0  2  0  0  4           0  0  0
    6.4547   -1.9747    3.4022 C   0  0  0  0  0  4           0  0  0
   -3.0205    0.6047    4.6034 C   0  0  0  0  0  4           0  0  0
   -1.8146    2.1467    3.0348 C   0  0  0  0  0  4           0  0  0
  1  8  1  0     0  0
  1 19  1  0     0  0
  2  9  1  0     0  0
  2 20  1  0     0  0
  3 18  2  0     0  0
  4  8  2  0     0  0
  4 10  1  0     0  0
  5 10  2  0     0  0
  5 11  1  0     0  0
  6 10  1  0     0  0
  6 12  1  0     0  0
  7 11  1  0     0  0
  8 13  1  0     0  0
  9 14  2  0     0  0
  9 15  1  0     0  0
 11 13  2  0     0  0
 12 16  2  0     0  0
 12 17  1  0     0  0
 13 18  1  0     0  0
 14 16  1  0     0  0
 15 17  2  0     0  0
 19 21  1  0     0  0
 19 22  1  0     0  0
M  END
> <Compound >
9

> <standard_type>
pIC50

> <# Confs.>
25

> <canonical_smiles>
CC(C)OC1=NC(NC2=CC=C(OC)C=C2)=NC(N)=C1C([H])=O

> <standard_relation>
=

> <predicted_activity_value>
5.541815564429737

> <actual_activity_value>
5.7447274948966935

> <Publication ID>
nan

> <standard_units>
nM

> hash
4021364287625090966

$$$$
9_
XXILIB    08252103513D 0   0.00000     0.00000

 22 23  0     1  0            999 V2000
   -2.7328    0.0327    2.3124 O   0  0  0  0  0  2           0  0  0
    5.0531    2.1123   -3.6703 O   0  0  0  0  0  2           0  0  0
   -4.8379   -0.4708   -1.0191 O   0  0  0  0  0  2           0  0  0
   -0.6711   -0.0000    1.1710 N   0  0  0  0  0  3           0  0  0
   -0.6205    0.0014   -1.2015 N   0  0  0  0  0  3           0  0  0
    1.4056   -0.0000    0.0000 N   0  0  0  0  0  3           0  0  0
   -2.5688    0.0123   -2.5056 N   0  0  0  0  0  3           0  0  0
   -2.0226    0.0093    1.1210 C   0  0  0  0  0  4           0  0  0
    4.1071    1.6591   -2.7949 C   0  0  0  0  0  4           0  0  0
    0.0000    0.0000    0.0000 C   0  0  0  0  0  4           0  0  0
   -1.9769   -0.0123   -1.2456 C   0  0  0  0  0  4           0  0  0
    2.3186    0.5288   -0.9159 C   0  0  0  0  0  4           0  0  0
   -2.7317    0.0094   -0.0745 C   0  0  0  0  0  4           0  0  0
    2.8483    2.2268   -2.5916 C   0  0  0  0  0  4           0  0  0
    4.4684    0.5283   -2.0586 C   0  0  0  0  0  4           0  0  0
    1.9666    1.6650   -1.6607 C   0  0  0  0  0  4           0  0  0
    3.5856   -0.0306   -1.1290 C   0  0  0  0  0  4           0  0  0
   -4.1985    0.0458   -0.1117 C   0  0  0  0  0  4           0  0  0
   -1.9393    0.0448    3.5009 C   0  0  2  0  0  4           0  0  0
    4.6837    3.2664   -4.4218 C   0  0  0  0  0  4           0  0  0
   -2.7443   -0.6617    4.5876 C   0  0  0  0  0  4           0  0  0
   -1.6455    1.4874    3.9047 C   0  0  0  0  0  4           0  0  0
  1  8  1  0     0  0
  1 19  1  0     0  0
  2  9  1  0     0  0
  2 20  1  0     0  0
  3 18  2  0     0  0
  4  8  2  0     0  0
  4 10  1  0     0  0
  5 10  2  0     0  0
  5 11  1  0     0  0
  6 10  1  0     0  0
  6 12  1  0     0  0
  7 11  1  0     0  0
  8 13  1  0     0  0
  9 14  2  0     0  0
  9 15  1  0     0  0
 11 13  2  0     0  0
 12 16  2  0     0  0
 12 17  1  0     0  0
 13 18  1  0     0  0
 14 16  1  0     0  0
 15 17  2  0     0  0
 19 21  1  0     0  0
 19 22  1  0     0  0
M  END
> <Compound >
9

> <standard_type>
pIC50

> <# Confs.>
25

> <canonical_smiles>
CC(C)OC1=NC(NC2=CC=C(OC)C=C2)=NC(N)=C1C([H])=O

> <standard_relation>
=

> <predicted_activity_value>
5.541815564429737

> <actual_activity_value>
5.7447274948966935

> <Publication ID>
nan

> <standard_units>
nM

> hash
4021364287625090966

$$$$
9_
XXILIB    08252103513D 0   0.00000     0.00000

 22 23  0     1  0            999 V2000
   -2.7328    0.0327    2.3124 O   0  0  0  0  0  2           0  0  0
    5.0598   -2.1074   -3.6665 O   0  0  0  0  0  2           0  0  0
   -4.8379   -0.4708   -1.0191 O   0  0  0  0  0  2           0  0  0
   -0.6711   -0.0000    1.1710 N   0  0  0  0  0  3           0  0  0
   -0.6205    0.0014   -1.2015 N   0  0  0  0  0  3           0  0  0
    1.4056   -0.0000    0.0000 N   0  0  0  0  0  3           0  0  0
   -2.5688    0.0123   -2.5056 N   0  0  0  0  0  3           0  0  0
   -2.0226    0.0093    1.1210 C   0  0  0  0  0  4           0  0  0
    4.2334   -1.5659   -2.7228 C   0  0  0  0  0  4           0  0  0
    0.0000    0.0000    0.0000 C   0  0  0  0  0  4           0  0  0
   -1.9769   -0.0123   -1.2456 C   0  0  0  0  0  4           0  0  0
    2.3186   -0.5288   -0.9159 C   0  0  0  0  0  4           0  0  0
   -2.7317    0.0094   -0.0745 C   0  0  0  0  0  4           0  0  0
    4.6445   -0.9008   -1.5667 C   0  0  0  0  0  4           0  0  0
    2.8667   -1.7107   -2.9726 C   0  0  0  0  0  4           0  0  0
    3.6941   -0.3896   -0.6749 C   0  0  0  0  0  4           0  0  0
    1.9194   -1.1994   -2.0797 C   0  0  0  0  0  4           0  0  0
   -4.1985    0.0458   -0.1117 C   0  0  0  0  0  4           0  0  0
   -2.0925   -0.6005    3.4222 C   0  0  2  0  0  4           0  0  0
    6.4547   -1.9591   -3.4112 C   0  0  0  0  0  4           0  0  0
   -3.0099   -1.7267    3.8893 C   0  0  0  0  0  4           0  0  0
   -1.8827    0.4177    4.5402 C   0  0  0  0  0  4           0  0  0
  1  8  1  0     0  0
  1 19  1  0     0  0
  2  9  1  0     0  0
  2 20  1  0     0  0
  3 18  2  0     0  0
  4  8  2  0     0  0
  4 10  1  0     0  0
  5 10  2  0     0  0
  5 11  1  0     0  0
  6 10  1  0     0  0
  6 12  1  0     0  0
  7 11  1  0     0  0
  8 13  1  0     0  0
  9 14  2  0     0  0
  9 15  1  0     0  0
 11 13  2  0     0  0
 12 16  2  0     0  0
 12 17  1  0     0  0
 13 18  1  0     0  0
 14 16  1  0     0  0
 15 17  2  0     0  0
 19 21  1  0     0  0
 19 22  1  0     0  0
M  END
> <Compound >
9

> <standard_type>
pIC50

> <# Confs.>
25

> <canonical_smiles>
CC(C)OC1=NC(NC2=CC=C(OC)C=C2)=NC(N)=C1C([H])=O

> <standard_relation>
=

> <predicted_activity_value>
5.541815564429737

> <actual_activity_value>
5.7447274948966935

> <Publication ID>
nan

> <standard_units>
nM

> hash
4021364287625090966

$$$$
1_
XXILIB    08252103513D 0   0.00000     0.00000

 24 25  0     1  0            999 V2000
   -1.0060   -0.0891    8.0554 S   0  0  1  0  0  6           0  0  0
    0.4393    0.0217    8.0854 O   0  0  0  0  0  2           0  0  0
   -1.6805   -1.2124    8.6764 O   0  0  0  0  0  2           0  0  0
    1.3868    0.0000   -0.0000 O   0  0  0  0  0  2           0  0  0
   -0.6681    0.0015   -3.5463 O   0  0  0  0  0  2           0  0  0
   -0.6647    0.0000    1.1811 N   0  0  0  0  0  3           0  0  0
   -2.7324   -0.0023   -0.0030 N   0  0  0  0  0  3           0  0  0
   -1.6940    1.3633    8.6246 N   0  0  0  0  0  3           0  0  0
   -2.7434   -0.0034    2.3493 N   0  0  0  0  0  3           0  0  0
   -1.5076   -0.0363    6.3657 C   0  0  0  0  0  4           0  0  0
    0.0000    0.0000    0.0000 C   0  0  0  0  0  4           0  0  0
   -2.0211   -0.0020    1.1483 C   0  0  0  0  0  4           0  0  0
   -2.0338   -0.0008   -1.1579 C   0  0  0  0  0  4           0  0  0
   -2.3082   -0.0031    3.6764 C   0  0  0  0  0  4           0  0  0
   -0.6559    0.0005   -1.2158 C   0  0  0  0  0  4           0  0  0
   -0.6959    0.5739    5.4134 C   0  0  0  0  0  4           0  0  0
   -2.7072   -0.6404    5.9979 C   0  0  0  0  0  4           0  0  0
   -1.0997    0.5904    4.0752 C   0  0  0  0  0  4           0  0  0
   -3.1026   -0.6181    4.6588 C   0  0  0  0  0  4           0  0  0
   -0.0026    0.0011   -2.5199 C   0  0  0  0  0  4           0  0  0
    2.0024    0.0000    1.2897 C   0  0  1  0  0  4           0  0  0
    3.3444   -0.7289    1.1705 C   0  0  0  0  0  4           0  0  0
    2.2284    1.4426    1.7396 C   0  0  0  0  0  4           0  0  0
    3.1783   -2.1684    0.7024 C   0  0  0  0  0  4           0  0  0
  1  2  2  0     0  0
  1  3  2  0     0  0
  1  8  1  0     0  0
  1 10  1  0     0  0
  4 11  1  0     0  0
  4 21  1  0     0  0
  5 20  2  0     0  0
  6 11  2  0     0  0
  6 12  1  0     0  0
  7 12  2  0     0  0
  7 13  1  0     0  0
  9 12  1  0     0  0
  9 14  1  0     0  0
 10 16  2  0     0  0
 10 17  1  0     0  0
 11 15  1  0     0  0
 13 15  2  0     0  0
 14 18  2  0     0  0
 14 19  1  0     0  0
 15 20  1  0     0  0
 16 18  1  0     0  0
 17 19  2  0     0  0
 21 22  1  0     0  0
 21 23  1  0     0  0
 22 24  1  0     0  0
M  END
> <Compound >
1

> <standard_type>
pIC50

> <# Confs.>
25

> <canonical_smiles>
O=S(C1=CC=C(NC2=NC=C(C([H])=O)C(O[C@H](C)CC)=N2)C=C1)(N)=O

> <standard_relation>
=

> <predicted_activity_value>
7.698970004336019

> <actual_activity_value>
7.882728704344236

> <Publication ID>
Ece_2013

> <standard_units>
nM

> hash
3333761597320278432

$$$$
1_
XXILIB    08252103513D 0   0.00000     0.00000

 24 25  0     1  0            999 V2000
   -1.0060   -0.0891    8.0554 S   0  0  1  0  0  6           0  0  0
   -2.2028   -0.2260    8.8621 O   0  0  0  0  0  2           0  0  0
   -0.0829    1.0081    8.2715 O   0  0  0  0  0  2           0  0  0
    1.3868    0.0000   -0.0000 O   0  0  0  0  0  2           0  0  0
   -0.6681    0.0015   -3.5463 O   0  0  0  0  0  2           0  0  0
   -0.6647    0.0000    1.1811 N   0  0  0  0  0  3           0  0  0
   -2.7324   -0.0023   -0.0030 N   0  0  0  0  0  3           0  0  0
   -0.1437   -1.5598    8.0730 N   0  0  0  0  0  3           0  0  0
   -2.7434   -0.0034    2.3493 N   0  0  0  0  0  3           0  0  0
   -1.5076   -0.0363    6.3657 C   0  0  0  0  0  4           0  0  0
    0.0000    0.0000    0.0000 C   0  0  0  0  0  4           0  0  0
   -2.0211   -0.0020    1.1483 C   0  0  0  0  0  4           0  0  0
   -2.0338   -0.0008   -1.1579 C   0  0  0  0  0  4           0  0  0
   -2.3082   -0.0031    3.6764 C   0  0  0  0  0  4           0  0  0
   -0.6559    0.0005   -1.2158 C   0  0  0  0  0  4           0  0  0
   -0.6959    0.5739    5.4134 C   0  0  0  0  0  4           0  0  0
   -2.7072   -0.6404    5.9979 C   0  0  0  0  0  4           0  0  0
   -1.0997    0.5904    4.0752 C   0  0  0  0  0  4           0  0  0
   -3.1026   -0.6181    4.6588 C   0  0  0  0  0  4           0  0  0
   -0.0026    0.0011   -2.5199 C   0  0  0  0  0  4           0  0  0
    2.0024    0.0000    1.2897 C   0  0  1  0  0  4           0  0  0
    3.3444   -0.7289    1.1705 C   0  0  0  0  0  4           0  0  0
    2.2284    1.4426    1.7396 C   0  0  0  0  0  4           0  0  0
    3.1783   -2.1684    0.7024 C   0  0  0  0  0  4           0  0  0
  1  2  2  0     0  0
  1  3  2  0     0  0
  1  8  1  0     0  0
  1 10  1  0     0  0
  4 11  1  0     0  0
  4 21  1  0     0  0
  5 20  2  0     0  0
  6 11  2  0     0  0
  6 12  1  0     0  0
  7 12  2  0     0  0
  7 13  1  0     0  0
  9 12  1  0     0  0
  9 14  1  0     0  0
 10 16  2  0     0  0
 10 17  1  0     0  0
 11 15  1  0     0  0
 13 15  2  0     0  0
 14 18  2  0     0  0
 14 19  1  0     0  0
 15 20  1  0     0  0
 16 18  1  0     0  0
 17 19  2  0     0  0
 21 22  1  0     0  0
 21 23  1  0     0  0
 22 24  1  0     0  0
M  END
> <Compound >
1

> <standard_type>
pIC50

> <# Confs.>
25

> <canonical_smiles>
O=S(C1=CC=C(NC2=NC=C(C([H])=O)C(O[C@H](C)CC)=N2)C=C1)(N)=O

> <standard_relation>
=

> <predicted_activity_value>
7.698970004336019

> <actual_activity_value>
7.882728704344236

> <Publication ID>
Ece_2013

> <standard_units>
nM

> hash
3333761597320278432

$$$$
1_
XXILIB    08252103513D 0   0.00000     0.00000

 24 25  0     1  0            999 V2000
   -1.0171    0.0643    8.0590 S   0  0  1  0  0  6           0  0  0
   -1.6671    1.1985    8.6861 O   0  0  0  0  0  2           0  0  0
    0.4241   -0.0883    8.1055 O   0  0  0  0  0  2           0  0  0
    1.3868    0.0000   -0.0000 O   0  0  0  0  0  2           0  0  0
   -0.6681    0.0015   -3.5463 O   0  0  0  0  0  2           0  0  0
   -0.6647    0.0000    1.1811 N   0  0  0  0  0  3           0  0  0
   -2.7324   -0.0023   -0.0030 N   0  0  0  0  0  3           0  0  0
   -1.7519   -1.3758    8.6003 N   0  0  0  0  0  3           0  0  0
   -2.7434   -0.0034    2.3493 N   0  0  0  0  0  3           0  0  0
   -1.4987    0.0474    6.3628 C   0  0  0  0  0  4           0  0  0
    0.0000    0.0000    0.0000 C   0  0  0  0  0  4           0  0  0
   -2.0211   -0.0020    1.1483 C   0  0  0  0  0  4           0  0  0
   -2.0338   -0.0008   -1.1579 C   0  0  0  0  0  4           0  0  0
   -2.3082   -0.0031    3.6764 C   0  0  0  0  0  4           0  0  0
   -0.6559    0.0005   -1.2158 C   0  0  0  0  0  4           0  0  0
   -0.6921   -0.5725    5.4124 C   0  0  0  0  0  4           0  0  0
   -2.7082    0.6332    5.9980 C   0  0  0  0  0  4           0  0  0
   -1.0979   -0.5932    4.0749 C   0  0  0  0  0  4           0  0  0
   -3.1048    0.6082    4.6592 C   0  0  0  0  0  4           0  0  0
   -0.0026    0.0011   -2.5199 C   0  0  0  0  0  4           0  0  0
    2.0024    0.0000    1.2897 C   0  0  1  0  0  4           0  0  0
    3.3444   -0.7289    1.1705 C   0  0  0  0  0  4           0  0  0
    2.2284    1.4426    1.7396 C   0  0  0  0  0  4           0  0  0
    3.1783   -2.1684    0.7024 C   0  0  0  0  0  4           0  0  0
  1  2  2  0     0  0
  1  3  2  0     0  0
  1  8  1  0     0  0
  1 10  1  0     0  0
  4 11  1  0     0  0
  4 21  1  0     0  0
  5 20  2  0     0  0
  6 11  2  0     0  0
  6 12  1  0     0  0
  7 12  2  0     0  0
  7 13  1  0     0  0
  9 12  1  0     0  0
  9 14  1  0     0  0
 10 16  2  0     0  0
 10 17  1  0     0  0
 11 15  1  0     0  0
 13 15  2  0     0  0
 14 18  2  0     0  0
 14 19  1  0     0  0
 15 20  1  0     0  0
 16 18  1  0     0  0
 17 19  2  0     0  0
 21 22  1  0     0  0
 21 23  1  0     0  0
 22 24  1  0     0  0
M  END
> <Compound >
1

> <standard_type>
pIC50

> <# Confs.>
25

> <canonical_smiles>
O=S(C1=CC=C(NC2=NC=C(C([H])=O)C(O[C@H](C)CC)=N2)C=C1)(N)=O

> <standard_relation>
=

> <predicted_activity_value>
7.698970004336019

> <actual_activity_value>
7.882728704344236

> <Publication ID>
Ece_2013

> <standard_units>
nM

> hash
3333761597320278432

$$$$
1_
XXILIB    08252103513D 0   0.00000     0.00000

 24 25  0     1  0            999 V2000
   -1.0171    0.0643    8.0590 S   0  0  1  0  0  6           0  0  0
   -0.1287   -1.0614    8.2719 O   0  0  0  0  0  2           0  0  0
   -2.2198    0.2253    8.8530 O   0  0  0  0  0  2           0  0  0
    1.3868    0.0000   -0.0000 O   0  0  0  0  0  2           0  0  0
   -0.6681    0.0015   -3.5463 O   0  0  0  0  0  2           0  0  0
   -0.6647    0.0000    1.1811 N   0  0  0  0  0  3           0  0  0
   -2.7324   -0.0023   -0.0030 N   0  0  0  0  0  3           0  0  0
   -0.1151    1.5104    8.1068 N   0  0  0  0  0  3           0  0  0
   -2.7434   -0.0034    2.3493 N   0  0  0  0  0  3           0  0  0
   -1.4987    0.0474    6.3628 C   0  0  0  0  0  4           0  0  0
    0.0000    0.0000    0.0000 C   0  0  0  0  0  4           0  0  0
   -2.0211   -0.0020    1.1483 C   0  0  0  0  0  4           0  0  0
   -2.0338   -0.0008   -1.1579 C   0  0  0  0  0  4           0  0  0
   -2.3082   -0.0031    3.6764 C   0  0  0  0  0  4           0  0  0
   -0.6559    0.0005   -1.2158 C   0  0  0  0  0  4           0  0  0
   -0.6921   -0.5725    5.4124 C   0  0  0  0  0  4           0  0  0
   -2.7082    0.6332    5.9980 C   0  0  0  0  0  4           0  0  0
   -1.0979   -0.5932    4.0749 C   0  0  0  0  0  4           0  0  0
   -3.1048    0.6082    4.6592 C   0  0  0  0  0  4           0  0  0
   -0.0026    0.0011   -2.5199 C   0  0  0  0  0  4           0  0  0
    2.0024    0.0000    1.2897 C   0  0  1  0  0  4           0  0  0
    3.3444   -0.7289    1.1705 C   0  0  0  0  0  4           0  0  0
    2.2284    1.4426    1.7396 C   0  0  0  0  0  4           0  0  0
    3.1783   -2.1684    0.7024 C   0  0  0  0  0  4           0  0  0
  1  2  2  0     0  0
  1  3  2  0     0  0
  1  8  1  0     0  0
  1 10  1  0     0  0
  4 11  1  0     0  0
  4 21  1  0     0  0
  5 20  2  0     0  0
  6 11  2  0     0  0
  6 12  1  0     0  0
  7 12  2  0     0  0
  7 13  1  0     0  0
  9 12  1  0     0  0
  9 14  1  0     0  0
 10 16  2  0     0  0
 10 17  1  0     0  0
 11 15  1  0     0  0
 13 15  2  0     0  0
 14 18  2  0     0  0
 14 19  1  0     0  0
 15 20  1  0     0  0
 16 18  1  0     0  0
 17 19  2  0     0  0
 21 22  1  0     0  0
 21 23  1  0     0  0
 22 24  1  0     0  0
M  END
> <Compound >
1

> <standard_type>
pIC50

> <# Confs.>
25

> <canonical_smiles>
O=S(C1=CC=C(NC2=NC=C(C([H])=O)C(O[C@H](C)CC)=N2)C=C1)(N)=O

> <standard_relation>
=

> <predicted_activity_value>
7.698970004336019

> <actual_activity_value>
7.882728704344236

> <Publication ID>
Ece_2013

> <standard_units>
nM

> hash
3333761597320278432

$$$$
1_
XXILIB    08252103513D 0   0.00000     0.00000

 24 25  0     1  0            999 V2000
   -8.5963   -0.0792    3.5002 S   0  0  1  0  0  6           0  0  0
   -9.2019    1.0472    2.8170 O   0  0  0  0  0  2           0  0  0
   -8.7338   -0.2427    4.9343 O   0  0  0  0  0  2           0  0  0
    1.3868    0.0000   -0.0000 O   0  0  0  0  0  2           0  0  0
   -0.6681    0.0015   -3.5463 O   0  0  0  0  0  2           0  0  0
   -0.6647    0.0000    1.1811 N   0  0  0  0  0  3           0  0  0
   -2.7324   -0.0023   -0.0030 N   0  0  0  0  0  3           0  0  0
   -9.0598   -1.5243    2.7233 N   0  0  0  0  0  3           0  0  0
   -2.7434   -0.0034    2.3493 N   0  0  0  0  0  3           0  0  0
   -6.8722   -0.0598    3.1306 C   0  0  0  0  0  4           0  0  0
    0.0000    0.0000   -0.0000 C   0  0  0  0  0  4           0  0  0
   -2.0211   -0.0020    1.1483 C   0  0  0  0  0  4           0  0  0
   -2.0338   -0.0008   -1.1579 C   0  0  0  0  0  4           0  0  0
   -4.1198   -0.0055    2.5868 C   0  0  0  0  0  4           0  0  0
   -0.6559    0.0005   -1.2158 C   0  0  0  0  0  4           0  0  0
   -6.4114    0.5626    1.9737 C   0  0  0  0  0  4           0  0  0
   -5.9825   -0.6462    4.0271 C   0  0  0  0  0  4           0  0  0
   -5.0396    0.5852    1.7054 C   0  0  0  0  0  4           0  0  0
   -4.6140   -0.6194    3.7501 C   0  0  0  0  0  4           0  0  0
   -0.0026    0.0011   -2.5199 C   0  0  0  0  0  4           0  0  0
    2.0024    0.0000    1.2897 C   0  0  1  0  0  4           0  0  0
    3.3444   -0.7289    1.1705 C   0  0  0  0  0  4           0  0  0
    2.2284    1.4426    1.7396 C   0  0  0  0  0  4           0  0  0
    3.1783   -2.1684    0.7024 C   0  0  0  0  0  4           0  0  0
  1  2  2  0     0  0
  1  3  2  0     0  0
  1  8  1  0     0  0
  1 10  1  0     0  0
  4 11  1  0     0  0
  4 21  1  0     0  0
  5 20  2  0     0  0
  6 11  2  0     0  0
  6 12  1  0     0  0
  7 12  2  0     0  0
  7 13  1  0     0  0
  9 12  1  0     0  0
  9 14  1  0     0  0
 10 16  2  0     0  0
 10 17  1  0     0  0
 11 15  1  0     0  0
 13 15  2  0     0  0
 14 18  2  0     0  0
 14 19  1  0     0  0
 15 20  1  0     0  0
 16 18  1  0     0  0
 17 19  2  0     0  0
 21 22  1  0     0  0
 21 23  1  0     0  0
 22 24  1  0     0  0
M  END
> <Compound >
1

> <standard_type>
pIC50

> <# Confs.>
25

> <canonical_smiles>
O=S(C1=CC=C(NC2=NC=C(C([H])=O)C(O[C@H](C)CC)=N2)C=C1)(N)=O

> <standard_relation>
=

> <predicted_activity_value>
7.698970004336019

> <actual_activity_value>
7.882728704344236

> <Publication ID>
Ece_2013

> <standard_units>
nM

> hash
3333761597320278432

$$$$
1_
XXILIB    08252103513D 0   0.00000     0.00000

 24 25  0     1  0            999 V2000
   -1.0171    0.0643    8.0590 S   0  0  1  0  0  6           0  0  0
   -1.6671    1.1985    8.6861 O   0  0  0  0  0  2           0  0  0
    0.4241   -0.0883    8.1055 O   0  0  0  0  0  2           0  0  0
    1.3868    0.0000    0.0000 O   0  0  0  0  0  2           0  0  0
   -0.6681    0.0015   -3.5463 O   0  0  0  0  0  2           0  0  0
   -0.6647    0.0000    1.1811 N   0  0  0  0  0  3           0  0  0
   -2.7324   -0.0023   -0.0030 N   0  0  0  0  0  3           0  0  0
   -1.7519   -1.3758    8.6003 N   0  0  0  0  0  3           0  0  0
   -2.7434   -0.0034    2.3493 N   0  0  0  0  0  3           0  0  0
   -1.4987    0.0474    6.3628 C   0  0  0  0  0  4           0  0  0
    0.0000    0.0000    0.0000 C   0  0  0  0  0  4           0  0  0
   -2.0211   -0.0020    1.1483 C   0  0  0  0  0  4           0  0  0
   -2.0338   -0.0008   -1.1579 C   0  0  0  0  0  4           0  0  0
   -2.3082   -0.0031    3.6764 C   0  0  0  0  0  4           0  0  0
   -0.6559    0.0005   -1.2158 C   0  0  0  0  0  4           0  0  0
   -0.6921   -0.5725    5.4124 C   0  0  0  0  0  4           0  0  0
   -2.7082    0.6332    5.9980 C   0  0  0  0  0  4           0  0  0
   -1.0979   -0.5932    4.0749 C   0  0  0  0  0  4           0  0  0
   -3.1048    0.6082    4.6592 C   0  0  0  0  0  4           0  0  0
   -0.0026    0.0011   -2.5199 C   0  0  0  0  0  4           0  0  0
    2.0024    0.0000    1.2897 C   0  0  1  0  0  4           0  0  0
    2.2050   -1.4578    1.7143 C   0  0  0  0  0  4           0  0  0
    3.3513    0.7125    1.2037 C   0  0  0  0  0  4           0  0  0
    2.8591   -1.5730    3.0846 C   0  0  0  0  0  4           0  0  0
  1  2  2  0     0  0
  1  3  2  0     0  0
  1  8  1  0     0  0
  1 10  1  0     0  0
  4 11  1  0     0  0
  4 21  1  0     0  0
  5 20  2  0     0  0
  6 11  2  0     0  0
  6 12  1  0     0  0
  7 12  2  0     0  0
  7 13  1  0     0  0
  9 12  1  0     0  0
  9 14  1  0     0  0
 10 16  2  0     0  0
 10 17  1  0     0  0
 11 15  1  0     0  0
 13 15  2  0     0  0
 14 18  2  0     0  0
 14 19  1  0     0  0
 15 20  1  0     0  0
 16 18  1  0     0  0
 17 19  2  0     0  0
 21 22  1  0     0  0
 21 23  1  0     0  0
 22 24  1  0     0  0
M  END
> <Compound >
1

> <standard_type>
pIC50

> <# Confs.>
25

> <canonical_smiles>
O=S(C1=CC=C(NC2=NC=C(C([H])=O)C(O[C@H](C)CC)=N2)C=C1)(N)=O

> <standard_relation>
=

> <predicted_activity_value>
7.698970004336019

> <actual_activity_value>
7.882728704344236

> <Publication ID>
Ece_2013

> <standard_units>
nM

> hash
3333761597320278432

$$$$
1_
XXILIB    08252103513D 0   0.00000     0.00000

 24 25  0     1  0            999 V2000
   -1.0171    0.0643    8.0590 S   0  0  1  0  0  6           0  0  0
   -0.1287   -1.0614    8.2719 O   0  0  0  0  0  2           0  0  0
   -2.2198    0.2253    8.8530 O   0  0  0  0  0  2           0  0  0
    1.3868    0.0000    0.0000 O   0  0  0  0  0  2           0  0  0
   -0.6681    0.0015   -3.5463 O   0  0  0  0  0  2           0  0  0
   -0.6647    0.0000    1.1811 N   0  0  0  0  0  3           0  0  0
   -2.7324   -0.0023   -0.0030 N   0  0  0  0  0  3           0  0  0
   -0.1151    1.5104    8.1068 N   0  0  0  0  0  3           0  0  0
   -2.7434   -0.0034    2.3493 N   0  0  0  0  0  3           0  0  0
   -1.4987    0.0474    6.3628 C   0  0  0  0  0  4           0  0  0
    0.0000    0.0000    0.0000 C   0  0  0  0  0  4           0  0  0
   -2.0211   -0.0020    1.1483 C   0  0  0  0  0  4           0  0  0
   -2.0338   -0.0008   -1.1579 C   0  0  0  0  0  4           0  0  0
   -2.3082   -0.0031    3.6764 C   0  0  0  0  0  4           0  0  0
   -0.6559    0.0005   -1.2158 C   0  0  0  0  0  4           0  0  0
   -0.6921   -0.5725    5.4124 C   0  0  0  0  0  4           0  0  0
   -2.7082    0.6332    5.9980 C   0  0  0  0  0  4           0  0  0
   -1.0979   -0.5932    4.0749 C   0  0  0  0  0  4           0  0  0
   -3.1048    0.6082    4.6592 C   0  0  0  0  0  4           0  0  0
   -0.0026    0.0011   -2.5199 C   0  0  0  0  0  4           0  0  0
    2.0024    0.0000    1.2897 C   0  0  1  0  0  4           0  0  0
    2.2050   -1.4578    1.7143 C   0  0  0  0  0  4           0  0  0
    3.3513    0.7125    1.2037 C   0  0  0  0  0  4           0  0  0
    2.8591   -1.5730    3.0846 C   0  0  0  0  0  4           0  0  0
  1  2  2  0     0  0
  1  3  2  0     0  0
  1  8  1  0     0  0
  1 10  1  0     0  0
  4 11  1  0     0  0
  4 21  1  0     0  0
  5 20  2  0     0  0
  6 11  2  0     0  0
  6 12  1  0     0  0
  7 12  2  0     0  0
  7 13  1  0     0  0
  9 12  1  0     0  0
  9 14  1  0     0  0
 10 16  2  0     0  0
 10 17  1  0     0  0
 11 15  1  0     0  0
 13 15  2  0     0  0
 14 18  2  0     0  0
 14 19  1  0     0  0
 15 20  1  0     0  0
 16 18  1  0     0  0
 17 19  2  0     0  0
 21 22  1  0     0  0
 21 23  1  0     0  0
 22 24  1  0     0  0
M  END
> <Compound >
1

> <standard_type>
pIC50

> <# Confs.>
25

> <canonical_smiles>
O=S(C1=CC=C(NC2=NC=C(C([H])=O)C(O[C@H](C)CC)=N2)C=C1)(N)=O

> <standard_relation>
=

> <predicted_activity_value>
7.698970004336019

> <actual_activity_value>
7.882728704344236

> <Publication ID>
Ece_2013

> <standard_units>
nM

> hash
3333761597320278432

$$$$
1_
XXILIB    08252103513D 0   0.00000     0.00000

 24 25  0     1  0            999 V2000
   -8.5985    0.0743    3.4888 S   0  0  1  0  0  6           0  0  0
   -8.7503    0.2086    4.9244 O   0  0  0  0  0  2           0  0  0
   -9.2208   -1.0223    2.7729 O   0  0  0  0  0  2           0  0  0
    1.3868    0.0000   -0.0000 O   0  0  0  0  0  2           0  0  0
   -0.6681    0.0015   -3.5463 O   0  0  0  0  0  2           0  0  0
   -0.6647    0.0000    1.1811 N   0  0  0  0  0  3           0  0  0
   -2.7324   -0.0023   -0.0030 N   0  0  0  0  0  3           0  0  0
   -9.0196    1.5459    2.7379 N   0  0  0  0  0  3           0  0  0
   -2.7434   -0.0034    2.3493 N   0  0  0  0  0  3           0  0  0
   -6.8707    0.0239    3.1400 C   0  0  0  0  0  4           0  0  0
    0.0000    0.0000   -0.0000 C   0  0  0  0  0  4           0  0  0
   -2.0211   -0.0020    1.1483 C   0  0  0  0  0  4           0  0  0
   -2.0338   -0.0008   -1.1579 C   0  0  0  0  0  4           0  0  0
   -4.1198   -0.0055    2.5868 C   0  0  0  0  0  4           0  0  0
   -0.6559    0.0005   -1.2158 C   0  0  0  0  0  4           0  0  0
   -6.4093   -0.5839    1.9756 C   0  0  0  0  0  4           0  0  0
   -5.9842    0.6273    4.0283 C   0  0  0  0  0  4           0  0  0
   -5.0378   -0.5984    1.7051 C   0  0  0  0  0  4           0  0  0
   -4.6159    0.6070    3.7500 C   0  0  0  0  0  4           0  0  0
   -0.0026    0.0011   -2.5199 C   0  0  0  0  0  4           0  0  0
    2.0024    0.0000    1.2897 C   0  0  1  0  0  4           0  0  0
    3.3444   -0.7289    1.1705 C   0  0  0  0  0  4           0  0  0
    2.2284    1.4426    1.7396 C   0  0  0  0  0  4           0  0  0
    3.1783   -2.1684    0.7024 C   0  0  0  0  0  4           0  0  0
  1  2  2  0     0  0
  1  3  2  0     0  0
  1  8  1  0     0  0
  1 10  1  0     0  0
  4 11  1  0     0  0
  4 21  1  0     0  0
  5 20  2  0     0  0
  6 11  2  0     0  0
  6 12  1  0     0  0
  7 12  2  0     0  0
  7 13  1  0     0  0
  9 12  1  0     0  0
  9 14  1  0     0  0
 10 16  2  0     0  0
 10 17  1  0     0  0
 11 15  1  0     0  0
 13 15  2  0     0  0
 14 18  2  0     0  0
 14 19  1  0     0  0
 15 20  1  0     0  0
 16 18  1  0     0  0
 17 19  2  0     0  0
 21 22  1  0     0  0
 21 23  1  0     0  0
 22 24  1  0     0  0
M  END
> <Compound >
1

> <standard_type>
pIC50

> <# Confs.>
25

> <canonical_smiles>
O=S(C1=CC=C(NC2=NC=C(C([H])=O)C(O[C@H](C)CC)=N2)C=C1)(N)=O

> <standard_relation>
=

> <predicted_activity_value>
7.698970004336019

> <actual_activity_value>
7.882728704344236

> <Publication ID>
Ece_2013

> <standard_units>
nM

> hash
3333761597320278432

$$$$
1_
XXILIB    08252103513D 0   0.00000     0.00000

 24 25  0     1  0            999 V2000
   -1.0060   -0.0891    8.0554 S   0  0  1  0  0  6           0  0  0
    0.4393    0.0217    8.0854 O   0  0  0  0  0  2           0  0  0
   -1.6805   -1.2124    8.6764 O   0  0  0  0  0  2           0  0  0
    1.3868    0.0000    0.0000 O   0  0  0  0  0  2           0  0  0
   -0.6681    0.0015   -3.5463 O   0  0  0  0  0  2           0  0  0
   -0.6647    0.0000    1.1811 N   0  0  0  0  0  3           0  0  0
   -2.7324   -0.0023   -0.0030 N   0  0  0  0  0  3           0  0  0
   -1.6940    1.3633    8.6246 N   0  0  0  0  0  3           0  0  0
   -2.7434   -0.0034    2.3493 N   0  0  0  0  0  3           0  0  0
   -1.5076   -0.0363    6.3657 C   0  0  0  0  0  4           0  0  0
    0.0000    0.0000    0.0000 C   0  0  0  0  0  4           0  0  0
   -2.0211   -0.0020    1.1483 C   0  0  0  0  0  4           0  0  0
   -2.0338   -0.0008   -1.1579 C   0  0  0  0  0  4           0  0  0
   -2.3082   -0.0031    3.6764 C   0  0  0  0  0  4           0  0  0
   -0.6559    0.0005   -1.2158 C   0  0  0  0  0  4           0  0  0
   -0.6959    0.5739    5.4134 C   0  0  0  0  0  4           0  0  0
   -2.7072   -0.6404    5.9979 C   0  0  0  0  0  4           0  0  0
   -1.0997    0.5904    4.0752 C   0  0  0  0  0  4           0  0  0
   -3.1026   -0.6181    4.6588 C   0  0  0  0  0  4           0  0  0
   -0.0026    0.0011   -2.5199 C   0  0  0  0  0  4           0  0  0
    2.0024    0.0000    1.2897 C   0  0  1  0  0  4           0  0  0
    2.2050   -1.4578    1.7143 C   0  0  0  0  0  4           0  0  0
    3.3513    0.7125    1.2037 C   0  0  0  0  0  4           0  0  0
    2.8591   -1.5730    3.0846 C   0  0  0  0  0  4           0  0  0
  1  2  2  0     0  0
  1  3  2  0     0  0
  1  8  1  0     0  0
  1 10  1  0     0  0
  4 11  1  0     0  0
  4 21  1  0     0  0
  5 20  2  0     0  0
  6 11  2  0     0  0
  6 12  1  0     0  0
  7 12  2  0     0  0
  7 13  1  0     0  0
  9 12  1  0     0  0
  9 14  1  0     0  0
 10 16  2  0     0  0
 10 17  1  0     0  0
 11 15  1  0     0  0
 13 15  2  0     0  0
 14 18  2  0     0  0
 14 19  1  0     0  0
 15 20  1  0     0  0
 16 18  1  0     0  0
 17 19  2  0     0  0
 21 22  1  0     0  0
 21 23  1  0     0  0
 22 24  1  0     0  0
M  END
> <Compound >
1

> <standard_type>
pIC50

> <# Confs.>
25

> <canonical_smiles>
O=S(C1=CC=C(NC2=NC=C(C([H])=O)C(O[C@H](C)CC)=N2)C=C1)(N)=O

> <standard_relation>
=

> <predicted_activity_value>
7.698970004336019

> <actual_activity_value>
7.882728704344236

> <Publication ID>
Ece_2013

> <standard_units>
nM

> hash
3333761597320278432

$$$$
1_
XXILIB    08252103513D 0   0.00000     0.00000

 24 25  0     1  0            999 V2000
   -1.0060   -0.0891    8.0554 S   0  0  1  0  0  6           0  0  0
   -2.2028   -0.2260    8.8621 O   0  0  0  0  0  2           0  0  0
   -0.0829    1.0081    8.2715 O   0  0  0  0  0  2           0  0  0
    1.3868   -0.0000   -0.0000 O   0  0  0  0  0  2           0  0  0
   -0.6681    0.0015   -3.5463 O   0  0  0  0  0  2           0  0  0
   -0.6647    0.0000    1.1811 N   0  0  0  0  0  3           0  0  0
   -2.7324   -0.0023   -0.0030 N   0  0  0  0  0  3           0  0  0
   -0.1437   -1.5598    8.0730 N   0  0  0  0  0  3           0  0  0
   -2.7434   -0.0034    2.3493 N   0  0  0  0  0  3           0  0  0
   -1.5076   -0.0363    6.3657 C   0  0  0  0  0  4           0  0  0
    0.0000    0.0000    0.0000 C   0  0  0  0  0  4           0  0  0
   -2.0211   -0.0020    1.1483 C   0  0  0  0  0  4           0  0  0
   -2.0338   -0.0008   -1.1579 C   0  0  0  0  0  4           0  0  0
   -2.3082   -0.0031    3.6764 C   0  0  0  0  0  4           0  0  0
   -0.6559    0.0005   -1.2158 C   0  0  0  0  0  4           0  0  0
   -0.6959    0.5739    5.4134 C   0  0  0  0  0  4           0  0  0
   -2.7072   -0.6404    5.9979 C   0  0  0  0  0  4           0  0  0
   -1.0997    0.5904    4.0752 C   0  0  0  0  0  4           0  0  0
   -3.1026   -0.6181    4.6588 C   0  0  0  0  0  4           0  0  0
   -0.0026    0.0011   -2.5199 C   0  0  0  0  0  4           0  0  0
    2.0024    0.6449    1.1169 C   0  0  1  0  0  4           0  0  0
    2.8628   -0.3932    1.8439 C   0  0  0  0  0  4           0  0  0
    2.8782    1.7923    0.6159 C   0  0  0  0  0  4           0  0  0
    2.0409   -1.5728    2.3460 C   0  0  0  0  0  4           0  0  0
  1  2  2  0     0  0
  1  3  2  0     0  0
  1  8  1  0     0  0
  1 10  1  0     0  0
  4 11  1  0     0  0
  4 21  1  0     0  0
  5 20  2  0     0  0
  6 11  2  0     0  0
  6 12  1  0     0  0
  7 12  2  0     0  0
  7 13  1  0     0  0
  9 12  1  0     0  0
  9 14  1  0     0  0
 10 16  2  0     0  0
 10 17  1  0     0  0
 11 15  1  0     0  0
 13 15  2  0     0  0
 14 18  2  0     0  0
 14 19  1  0     0  0
 15 20  1  0     0  0
 16 18  1  0     0  0
 17 19  2  0     0  0
 21 22  1  0     0  0
 21 23  1  0     0  0
 22 24  1  0     0  0
M  END
> <Compound >
1

> <standard_type>
pIC50

> <# Confs.>
25

> <canonical_smiles>
O=S(C1=CC=C(NC2=NC=C(C([H])=O)C(O[C@H](C)CC)=N2)C=C1)(N)=O

> <standard_relation>
=

> <predicted_activity_value>
7.698970004336019

> <actual_activity_value>
7.882728704344236

> <Publication ID>
Ece_2013

> <standard_units>
nM

> hash
3333761597320278432

$$$$
1_
XXILIB    08252103513D 0   0.00000     0.00000

 24 25  0     1  0            999 V2000
   -8.5985    0.0743    3.4888 S   0  0  1  0  0  6           0  0  0
   -9.3022   -0.0351    2.2260 O   0  0  0  0  0  2           0  0  0
   -8.8321    1.1959    4.3776 O   0  0  0  0  0  2           0  0  0
    1.3868    0.0000   -0.0000 O   0  0  0  0  0  2           0  0  0
   -0.6681    0.0015   -3.5463 O   0  0  0  0  0  2           0  0  0
   -0.6647    0.0000    1.1811 N   0  0  0  0  0  3           0  0  0
   -2.7324   -0.0023   -0.0030 N   0  0  0  0  0  3           0  0  0
   -8.7774   -1.3798    4.3609 N   0  0  0  0  0  3           0  0  0
   -2.7434   -0.0034    2.3493 N   0  0  0  0  0  3           0  0  0
   -6.8707    0.0239    3.1400 C   0  0  0  0  0  4           0  0  0
    0.0000    0.0000   -0.0000 C   0  0  0  0  0  4           0  0  0
   -2.0211   -0.0020    1.1483 C   0  0  0  0  0  4           0  0  0
   -2.0338   -0.0008   -1.1579 C   0  0  0  0  0  4           0  0  0
   -4.1198   -0.0055    2.5868 C   0  0  0  0  0  4           0  0  0
   -0.6559    0.0005   -1.2158 C   0  0  0  0  0  4           0  0  0
   -6.4093   -0.5839    1.9756 C   0  0  0  0  0  4           0  0  0
   -5.9842    0.6273    4.0283 C   0  0  0  0  0  4           0  0  0
   -5.0378   -0.5984    1.7051 C   0  0  0  0  0  4           0  0  0
   -4.6159    0.6070    3.7500 C   0  0  0  0  0  4           0  0  0
   -0.0026    0.0011   -2.5199 C   0  0  0  0  0  4           0  0  0
    2.0024    0.0000    1.2897 C   0  0  1  0  0  4           0  0  0
    3.3444   -0.7289    1.1705 C   0  0  0  0  0  4           0  0  0
    2.2284    1.4426    1.7396 C   0  0  0  0  0  4           0  0  0
    3.1783   -2.1684    0.7024 C   0  0  0  0  0  4           0  0  0
  1  2  2  0     0  0
  1  3  2  0     0  0
  1  8  1  0     0  0
  1 10  1  0     0  0
  4 11  1  0     0  0
  4 21  1  0     0  0
  5 20  2  0     0  0
  6 11  2  0     0  0
  6 12  1  0     0  0
  7 12  2  0     0  0
  7 13  1  0     0  0
  9 12  1  0     0  0
  9 14  1  0     0  0
 10 16  2  0     0  0
 10 17  1  0     0  0
 11 15  1  0     0  0
 13 15  2  0     0  0
 14 18  2  0     0  0
 14 19  1  0     0  0
 15 20  1  0     0  0
 16 18  1  0     0  0
 17 19  2  0     0  0
 21 22  1  0     0  0
 21 23  1  0     0  0
 22 24  1  0     0  0
M  END
> <Compound >
1

> <standard_type>
pIC50

> <# Confs.>
25

> <canonical_smiles>
O=S(C1=CC=C(NC2=NC=C(C([H])=O)C(O[C@H](C)CC)=N2)C=C1)(N)=O

> <standard_relation>
=

> <predicted_activity_value>
7.698970004336019

> <actual_activity_value>
7.882728704344236

> <Publication ID>
Ece_2013

> <standard_units>
nM

> hash
3333761597320278432

$$$$
1_
XXILIB    08252103513D 0   0.00000     0.00000

 24 25  0     1  0            999 V2000
   -8.5963   -0.0792    3.5002 S   0  0  1  0  0  6           0  0  0
   -8.8445   -1.2151    4.3663 O   0  0  0  0  0  2           0  0  0
   -9.3129    0.0749    2.2491 O   0  0  0  0  0  2           0  0  0
    1.3868    0.0000   -0.0000 O   0  0  0  0  0  2           0  0  0
   -0.6681    0.0015   -3.5463 O   0  0  0  0  0  2           0  0  0
   -0.6647    0.0000    1.1811 N   0  0  0  0  0  3           0  0  0
   -2.7324   -0.0023   -0.0030 N   0  0  0  0  0  3           0  0  0
   -8.7316    1.3593    4.4054 N   0  0  0  0  0  3           0  0  0
   -2.7434   -0.0034    2.3493 N   0  0  0  0  0  3           0  0  0
   -6.8722   -0.0598    3.1306 C   0  0  0  0  0  4           0  0  0
    0.0000    0.0000   -0.0000 C   0  0  0  0  0  4           0  0  0
   -2.0211   -0.0020    1.1483 C   0  0  0  0  0  4           0  0  0
   -2.0338   -0.0008   -1.1579 C   0  0  0  0  0  4           0  0  0
   -4.1198   -0.0055    2.5868 C   0  0  0  0  0  4           0  0  0
   -0.6559    0.0005   -1.2158 C   0  0  0  0  0  4           0  0  0
   -6.4114    0.5626    1.9737 C   0  0  0  0  0  4           0  0  0
   -5.9825   -0.6462    4.0271 C   0  0  0  0  0  4           0  0  0
   -5.0396    0.5852    1.7054 C   0  0  0  0  0  4           0  0  0
   -4.6140   -0.6194    3.7501 C   0  0  0  0  0  4           0  0  0
   -0.0026    0.0011   -2.5199 C   0  0  0  0  0  4           0  0  0
    2.0024    0.0000    1.2897 C   0  0  1  0  0  4           0  0  0
    3.3444   -0.7289    1.1705 C   0  0  0  0  0  4           0  0  0
    2.2284    1.4426    1.7396 C   0  0  0  0  0  4           0  0  0
    3.1783   -2.1684    0.7024 C   0  0  0  0  0  4           0  0  0
  1  2  2  0     0  0
  1  3  2  0     0  0
  1  8  1  0     0  0
  1 10  1  0     0  0
  4 11  1  0     0  0
  4 21  1  0     0  0
  5 20  2  0     0  0
  6 11  2  0     0  0
  6 12  1  0     0  0
  7 12  2  0     0  0
  7 13  1  0     0  0
  9 12  1  0     0  0
  9 14  1  0     0  0
 10 16  2  0     0  0
 10 17  1  0     0  0
 11 15  1  0     0  0
 13 15  2  0     0  0
 14 18  2  0     0  0
 14 19  1  0     0  0
 15 20  1  0     0  0
 16 18  1  0     0  0
 17 19  2  0     0  0
 21 22  1  0     0  0
 21 23  1  0     0  0
 22 24  1  0     0  0
M  END
> <Compound >
1

> <standard_type>
pIC50

> <# Confs.>
25

> <canonical_smiles>
O=S(C1=CC=C(NC2=NC=C(C([H])=O)C(O[C@H](C)CC)=N2)C=C1)(N)=O

> <standard_relation>
=

> <predicted_activity_value>
7.698970004336019

> <actual_activity_value>
7.882728704344236

> <Publication ID>
Ece_2013

> <standard_units>
nM

> hash
3333761597320278432

$$$$
1_
XXILIB    08252103513D 0   0.00000     0.00000

 24 25  0     1  0            999 V2000
   -1.0171    0.0643    8.0590 S   0  0  1  0  0  6           0  0  0
   -1.6671    1.1985    8.6861 O   0  0  0  0  0  2           0  0  0
    0.4241   -0.0883    8.1055 O   0  0  0  0  0  2           0  0  0
    1.3868   -0.0000   -0.0000 O   0  0  0  0  0  2           0  0  0
   -0.6681    0.0015   -3.5463 O   0  0  0  0  0  2           0  0  0
   -0.6647    0.0000    1.1811 N   0  0  0  0  0  3           0  0  0
   -2.7324   -0.0023   -0.0030 N   0  0  0  0  0  3           0  0  0
   -1.7519   -1.3758    8.6003 N   0  0  0  0  0  3           0  0  0
   -2.7434   -0.0034    2.3493 N   0  0  0  0  0  3           0  0  0
   -1.4987    0.0474    6.3628 C   0  0  0  0  0  4           0  0  0
    0.0000    0.0000    0.0000 C   0  0  0  0  0  4           0  0  0
   -2.0211   -0.0020    1.1483 C   0  0  0  0  0  4           0  0  0
   -2.0338   -0.0008   -1.1579 C   0  0  0  0  0  4           0  0  0
   -2.3082   -0.0031    3.6764 C   0  0  0  0  0  4           0  0  0
   -0.6559    0.0005   -1.2158 C   0  0  0  0  0  4           0  0  0
   -0.6921   -0.5725    5.4124 C   0  0  0  0  0  4           0  0  0
   -2.7082    0.6332    5.9980 C   0  0  0  0  0  4           0  0  0
   -1.0979   -0.5932    4.0749 C   0  0  0  0  0  4           0  0  0
   -3.1048    0.6082    4.6592 C   0  0  0  0  0  4           0  0  0
   -0.0026    0.0011   -2.5199 C   0  0  0  0  0  4           0  0  0
    2.0024    0.6449    1.1169 C   0  0  1  0  0  4           0  0  0
    3.3444   -0.0460    1.3781 C   0  0  0  0  0  4           0  0  0
    2.2284    2.1191    0.7852 C   0  0  0  0  0  4           0  0  0
    4.0885    0.5678    2.5564 C   0  0  0  0  0  4           0  0  0
  1  2  2  0     0  0
  1  3  2  0     0  0
  1  8  1  0     0  0
  1 10  1  0     0  0
  4 11  1  0     0  0
  4 21  1  0     0  0
  5 20  2  0     0  0
  6 11  2  0     0  0
  6 12  1  0     0  0
  7 12  2  0     0  0
  7 13  1  0     0  0
  9 12  1  0     0  0
  9 14  1  0     0  0
 10 16  2  0     0  0
 10 17  1  0     0  0
 11 15  1  0     0  0
 13 15  2  0     0  0
 14 18  2  0     0  0
 14 19  1  0     0  0
 15 20  1  0     0  0
 16 18  1  0     0  0
 17 19  2  0     0  0
 21 22  1  0     0  0
 21 23  1  0     0  0
 22 24  1  0     0  0
M  END
> <Compound >
1

> <standard_type>
pIC50

> <# Confs.>
25

> <canonical_smiles>
O=S(C1=CC=C(NC2=NC=C(C([H])=O)C(O[C@H](C)CC)=N2)C=C1)(N)=O

> <standard_relation>
=

> <predicted_activity_value>
7.698970004336019

> <actual_activity_value>
7.882728704344236

> <Publication ID>
Ece_2013

> <standard_units>
nM

> hash
3333761597320278432

$$$$
1_
XXILIB    08252103513D 0   0.00000     0.00000

 24 25  0     1  0            999 V2000
   -1.0171    0.0643    8.0590 S   0  0  1  0  0  6           0  0  0
   -0.1287   -1.0614    8.2719 O   0  0  0  0  0  2           0  0  0
   -2.2198    0.2253    8.8530 O   0  0  0  0  0  2           0  0  0
    1.3868   -0.0000   -0.0000 O   0  0  0  0  0  2           0  0  0
   -0.6681    0.0015   -3.5463 O   0  0  0  0  0  2           0  0  0
   -0.6647    0.0000    1.1811 N   0  0  0  0  0  3           0  0  0
   -2.7324   -0.0023   -0.0030 N   0  0  0  0  0  3           0  0  0
   -0.1151    1.5104    8.1068 N   0  0  0  0  0  3           0  0  0
   -2.7434   -0.0034    2.3493 N   0  0  0  0  0  3           0  0  0
   -1.4987    0.0474    6.3628 C   0  0  0  0  0  4           0  0  0
    0.0000    0.0000    0.0000 C   0  0  0  0  0  4           0  0  0
   -2.0211   -0.0020    1.1483 C   0  0  0  0  0  4           0  0  0
   -2.0338   -0.0008   -1.1579 C   0  0  0  0  0  4           0  0  0
   -2.3082   -0.0031    3.6764 C   0  0  0  0  0  4           0  0  0
   -0.6559    0.0005   -1.2158 C   0  0  0  0  0  4           0  0  0
   -0.6921   -0.5725    5.4124 C   0  0  0  0  0  4           0  0  0
   -2.7082    0.6332    5.9980 C   0  0  0  0  0  4           0  0  0
   -1.0979   -0.5932    4.0749 C   0  0  0  0  0  4           0  0  0
   -3.1048    0.6082    4.6592 C   0  0  0  0  0  4           0  0  0
   -0.0026    0.0011   -2.5199 C   0  0  0  0  0  4           0  0  0
    2.0024    0.6449    1.1169 C   0  0  1  0  0  4           0  0  0
    3.3444   -0.0460    1.3781 C   0  0  0  0  0  4           0  0  0
    2.2284    2.1191    0.7852 C   0  0  0  0  0  4           0  0  0
    4.0885    0.5678    2.5564 C   0  0  0  0  0  4           0  0  0
  1  2  2  0     0  0
  1  3  2  0     0  0
  1  8  1  0     0  0
  1 10  1  0     0  0
  4 11  1  0     0  0
  4 21  1  0     0  0
  5 20  2  0     0  0
  6 11  2  0     0  0
  6 12  1  0     0  0
  7 12  2  0     0  0
  7 13  1  0     0  0
  9 12  1  0     0  0
  9 14  1  0     0  0
 10 16  2  0     0  0
 10 17  1  0     0  0
 11 15  1  0     0  0
 13 15  2  0     0  0
 14 18  2  0     0  0
 14 19  1  0     0  0
 15 20  1  0     0  0
 16 18  1  0     0  0
 17 19  2  0     0  0
 21 22  1  0     0  0
 21 23  1  0     0  0
 22 24  1  0     0  0
M  END
> <Compound >
1

> <standard_type>
pIC50

> <# Confs.>
25

> <canonical_smiles>
O=S(C1=CC=C(NC2=NC=C(C([H])=O)C(O[C@H](C)CC)=N2)C=C1)(N)=O

> <standard_relation>
=

> <predicted_activity_value>
7.698970004336019

> <actual_activity_value>
7.882728704344236

> <Publication ID>
Ece_2013

> <standard_units>
nM

> hash
3333761597320278432

$$$$
1_
XXILIB    08252103513D 0   0.00000     0.00000

 24 25  0     1  0            999 V2000
   -1.0171    0.0643    8.0590 S   0  0  1  0  0  6           0  0  0
   -0.1287   -1.0614    8.2719 O   0  0  0  0  0  2           0  0  0
   -2.2198    0.2253    8.8530 O   0  0  0  0  0  2           0  0  0
    1.3868    0.0000   -0.0000 O   0  0  0  0  0  2           0  0  0
   -0.6681    0.0015   -3.5463 O   0  0  0  0  0  2           0  0  0
   -0.6647    0.0000    1.1811 N   0  0  0  0  0  3           0  0  0
   -2.7324   -0.0023   -0.0030 N   0  0  0  0  0  3           0  0  0
   -0.1151    1.5104    8.1068 N   0  0  0  0  0  3           0  0  0
   -2.7434   -0.0034    2.3493 N   0  0  0  0  0  3           0  0  0
   -1.4987    0.0474    6.3628 C   0  0  0  0  0  4           0  0  0
    0.0000    0.0000    0.0000 C   0  0  0  0  0  4           0  0  0
   -2.0211   -0.0020    1.1483 C   0  0  0  0  0  4           0  0  0
   -2.0338   -0.0008   -1.1579 C   0  0  0  0  0  4           0  0  0
   -2.3082   -0.0031    3.6764 C   0  0  0  0  0  4           0  0  0
   -0.6559    0.0005   -1.2158 C   0  0  0  0  0  4           0  0  0
   -0.6921   -0.5725    5.4124 C   0  0  0  0  0  4           0  0  0
   -2.7082    0.6332    5.9980 C   0  0  0  0  0  4           0  0  0
   -1.0979   -0.5932    4.0749 C   0  0  0  0  0  4           0  0  0
   -3.1048    0.6082    4.6592 C   0  0  0  0  0  4           0  0  0
   -0.0026    0.0011   -2.5199 C   0  0  0  0  0  4           0  0  0
    2.0024   -0.6449    1.1169 C   0  0  1  0  0  4           0  0  0
    3.3444   -1.2165    0.6492 C   0  0  0  0  0  4           0  0  0
    2.2284    0.3795    2.2278 C   0  0  0  0  0  4           0  0  0
    4.2801   -0.1350    0.1260 C   0  0  0  0  0  4           0  0  0
  1  2  2  0     0  0
  1  3  2  0     0  0
  1  8  1  0     0  0
  1 10  1  0     0  0
  4 11  1  0     0  0
  4 21  1  0     0  0
  5 20  2  0     0  0
  6 11  2  0     0  0
  6 12  1  0     0  0
  7 12  2  0     0  0
  7 13  1  0     0  0
  9 12  1  0     0  0
  9 14  1  0     0  0
 10 16  2  0     0  0
 10 17  1  0     0  0
 11 15  1  0     0  0
 13 15  2  0     0  0
 14 18  2  0     0  0
 14 19  1  0     0  0
 15 20  1  0     0  0
 16 18  1  0     0  0
 17 19  2  0     0  0
 21 22  1  0     0  0
 21 23  1  0     0  0
 22 24  1  0     0  0
M  END
> <Compound >
1

> <standard_type>
pIC50

> <# Confs.>
25

> <canonical_smiles>
O=S(C1=CC=C(NC2=NC=C(C([H])=O)C(O[C@H](C)CC)=N2)C=C1)(N)=O

> <standard_relation>
=

> <predicted_activity_value>
7.698970004336019

> <actual_activity_value>
7.882728704344236

> <Publication ID>
Ece_2013

> <standard_units>
nM

> hash
3333761597320278432

$$$$
1_
XXILIB    08252103513D 0   0.00000     0.00000

 24 25  0     1  0            999 V2000
   -1.0311   -0.0139    8.0636 S   0  0  1  0  0  6           0  0  0
    0.2932   -0.6000    8.1334 O   0  0  0  0  0  2           0  0  0
   -2.1331   -0.5696    8.8247 O   0  0  0  0  0  2           0  0  0
    1.3868    0.0000   -0.0000 O   0  0  0  0  0  2           0  0  0
   -0.6681    0.0015   -3.5463 O   0  0  0  0  0  2           0  0  0
   -0.6647    0.0000    1.1811 N   0  0  0  0  0  3           0  0  0
   -2.7324   -0.0023   -0.0030 N   0  0  0  0  0  3           0  0  0
   -0.9233    1.6595    8.3718 N   0  0  0  0  0  3           0  0  0
   -2.7434   -0.0034    2.3493 N   0  0  0  0  0  3           0  0  0
   -1.5138    0.0068    6.3677 C   0  0  0  0  0  4           0  0  0
    0.0000    0.0000    0.0000 C   0  0  0  0  0  4           0  0  0
   -2.0211   -0.0020    1.1483 C   0  0  0  0  0  4           0  0  0
   -2.0338   -0.0008   -1.1579 C   0  0  0  0  0  4           0  0  0
   -2.3082   -0.0031    3.6764 C   0  0  0  0  0  4           0  0  0
   -0.6559    0.0005   -1.2158 C   0  0  0  0  0  4           0  0  0
   -0.5480    0.0012    5.3651 C   0  0  0  0  0  4           0  0  0
   -2.8698   -0.0037    6.0511 C   0  0  0  0  0  4           0  0  0
   -0.9481   -0.0012    4.0256 C   0  0  0  0  0  4           0  0  0
   -3.2598   -0.0052    4.7102 C   0  0  0  0  0  4           0  0  0
   -0.0026    0.0011   -2.5199 C   0  0  0  0  0  4           0  0  0
    2.0024    0.0000    1.2897 C   0  0  1  0  0  4           0  0  0
    3.3444   -0.7289    1.1705 C   0  0  0  0  0  4           0  0  0
    2.2284    1.4426    1.7396 C   0  0  0  0  0  4           0  0  0
    4.0885   -0.7865    2.4978 C   0  0  0  0  0  4           0  0  0
  1  2  2  0     0  0
  1  3  2  0     0  0
  1  8  1  0     0  0
  1 10  1  0     0  0
  4 11  1  0     0  0
  4 21  1  0     0  0
  5 20  2  0     0  0
  6 11  2  0     0  0
  6 12  1  0     0  0
  7 12  2  0     0  0
  7 13  1  0     0  0
  9 12  1  0     0  0
  9 14  1  0     0  0
 10 16  2  0     0  0
 10 17  1  0     0  0
 11 15  1  0     0  0
 13 15  2  0     0  0
 14 18  2  0     0  0
 14 19  1  0     0  0
 15 20  1  0     0  0
 16 18  1  0     0  0
 17 19  2  0     0  0
 21 22  1  0     0  0
 21 23  1  0     0  0
 22 24  1  0     0  0
M  END
> <Compound >
1

> <standard_type>
pIC50

> <# Confs.>
25

> <canonical_smiles>
O=S(C1=CC=C(NC2=NC=C(C([H])=O)C(O[C@H](C)CC)=N2)C=C1)(N)=O

> <standard_relation>
=

> <predicted_activity_value>
7.698970004336019

> <actual_activity_value>
7.882728704344236

> <Publication ID>
Ece_2013

> <standard_units>
nM

> hash
3333761597320278432

$$$$
1_
XXILIB    08252103513D 0   0.00000     0.00000

 24 25  0     1  0            999 V2000
   -1.5394   -2.2194    7.7553 S   0  0  1  0  0  6           0  0  0
   -2.3163   -1.4544    8.7109 O   0  0  0  0  0  2           0  0  0
   -0.1010   -2.3421    7.8920 O   0  0  0  0  0  2           0  0  0
    1.3868   -0.0000   -0.0000 O   0  0  0  0  0  2           0  0  0
   -0.6681    0.0015   -3.5463 O   0  0  0  0  0  2           0  0  0
   -0.6647    0.0000    1.1811 N   0  0  0  0  0  3           0  0  0
   -2.7324   -0.0023   -0.0030 N   0  0  0  0  0  3           0  0  0
   -2.2221   -3.7729    7.5896 N   0  0  0  0  0  3           0  0  0
   -2.7434   -0.0034    2.3493 N   0  0  0  0  0  3           0  0  0
   -1.8662   -1.5574    6.1540 C   0  0  0  0  0  4           0  0  0
    0.0000    0.0000    0.0000 C   0  0  0  0  0  4           0  0  0
   -2.0211   -0.0020    1.1483 C   0  0  0  0  0  4           0  0  0
   -2.0338   -0.0008   -1.1579 C   0  0  0  0  0  4           0  0  0
   -2.4288   -0.5318    3.6033 C   0  0  0  0  0  4           0  0  0
   -0.6559    0.0005   -1.2158 C   0  0  0  0  0  4           0  0  0
   -0.9390   -1.7175    5.1279 C   0  0  0  0  0  4           0  0  0
   -3.0748   -0.9040    5.9268 C   0  0  0  0  0  4           0  0  0
   -1.2222   -1.2028    3.8594 C   0  0  0  0  0  4           0  0  0
   -3.3483   -0.3925    4.6565 C   0  0  0  0  0  4           0  0  0
   -0.0026    0.0011   -2.5199 C   0  0  0  0  0  4           0  0  0
    2.0024    0.6449    1.1169 C   0  0  1  0  0  4           0  0  0
    3.3444   -0.0460    1.3781 C   0  0  0  0  0  4           0  0  0
    2.2284    2.1191    0.7852 C   0  0  0  0  0  4           0  0  0
    3.1783   -1.5267    1.6925 C   0  0  0  0  0  4           0  0  0
  1  2  2  0     0  0
  1  3  2  0     0  0
  1  8  1  0     0  0
  1 10  1  0     0  0
  4 11  1  0     0  0
  4 21  1  0     0  0
  5 20  2  0     0  0
  6 11  2  0     0  0
  6 12  1  0     0  0
  7 12  2  0     0  0
  7 13  1  0     0  0
  9 12  1  0     0  0
  9 14  1  0     0  0
 10 16  2  0     0  0
 10 17  1  0     0  0
 11 15  1  0     0  0
 13 15  2  0     0  0
 14 18  2  0     0  0
 14 19  1  0     0  0
 15 20  1  0     0  0
 16 18  1  0     0  0
 17 19  2  0     0  0
 21 22  1  0     0  0
 21 23  1  0     0  0
 22 24  1  0     0  0
M  END
> <Compound >
1

> <standard_type>
pIC50

> <# Confs.>
25

> <canonical_smiles>
O=S(C1=CC=C(NC2=NC=C(C([H])=O)C(O[C@H](C)CC)=N2)C=C1)(N)=O

> <standard_relation>
=

> <predicted_activity_value>
7.698970004336019

> <actual_activity_value>
7.882728704344236

> <Publication ID>
Ece_2013

> <standard_units>
nM

> hash
3333761597320278432

$$$$
1_
XXILIB    08252103513D 0   0.00000     0.00000

 24 25  0     1  0            999 V2000
   -1.0311   -0.0139    8.0636 S   0  0  1  0  0  6           0  0  0
   -2.1163    0.5618    8.8336 O   0  0  0  0  0  2           0  0  0
    0.3101    0.5314    8.1427 O   0  0  0  0  0  2           0  0  0
    1.3868    0.0000   -0.0000 O   0  0  0  0  0  2           0  0  0
   -0.6681    0.0015   -3.5463 O   0  0  0  0  0  2           0  0  0
   -0.6647    0.0000    1.1811 N   0  0  0  0  0  3           0  0  0
   -2.7324   -0.0023   -0.0030 N   0  0  0  0  0  3           0  0  0
   -0.9712   -1.6946    8.3444 N   0  0  0  0  0  3           0  0  0
   -2.7434   -0.0034    2.3493 N   0  0  0  0  0  3           0  0  0
   -1.5138    0.0068    6.3677 C   0  0  0  0  0  4           0  0  0
    0.0000    0.0000    0.0000 C   0  0  0  0  0  4           0  0  0
   -2.0211   -0.0020    1.1483 C   0  0  0  0  0  4           0  0  0
   -2.0338   -0.0008   -1.1579 C   0  0  0  0  0  4           0  0  0
   -2.3082   -0.0031    3.6764 C   0  0  0  0  0  4           0  0  0
   -0.6559    0.0005   -1.2158 C   0  0  0  0  0  4           0  0  0
   -0.5480    0.0012    5.3651 C   0  0  0  0  0  4           0  0  0
   -2.8698   -0.0037    6.0511 C   0  0  0  0  0  4           0  0  0
   -0.9481   -0.0012    4.0256 C   0  0  0  0  0  4           0  0  0
   -3.2598   -0.0052    4.7102 C   0  0  0  0  0  4           0  0  0
   -0.0026    0.0011   -2.5199 C   0  0  0  0  0  4           0  0  0
    2.0024    0.0000    1.2897 C   0  0  1  0  0  4           0  0  0
    3.3444   -0.7289    1.1705 C   0  0  0  0  0  4           0  0  0
    2.2284    1.4426    1.7396 C   0  0  0  0  0  4           0  0  0
    4.0885   -0.7865    2.4978 C   0  0  0  0  0  4           0  0  0
  1  2  2  0     0  0
  1  3  2  0     0  0
  1  8  1  0     0  0
  1 10  1  0     0  0
  4 11  1  0     0  0
  4 21  1  0     0  0
  5 20  2  0     0  0
  6 11  2  0     0  0
  6 12  1  0     0  0
  7 12  2  0     0  0
  7 13  1  0     0  0
  9 12  1  0     0  0
  9 14  1  0     0  0
 10 16  2  0     0  0
 10 17  1  0     0  0
 11 15  1  0     0  0
 13 15  2  0     0  0
 14 18  2  0     0  0
 14 19  1  0     0  0
 15 20  1  0     0  0
 16 18  1  0     0  0
 17 19  2  0     0  0
 21 22  1  0     0  0
 21 23  1  0     0  0
 22 24  1  0     0  0
M  END
> <Compound >
1

> <standard_type>
pIC50

> <# Confs.>
25

> <canonical_smiles>
O=S(C1=CC=C(NC2=NC=C(C([H])=O)C(O[C@H](C)CC)=N2)C=C1)(N)=O

> <standard_relation>
=

> <predicted_activity_value>
7.698970004336019

> <actual_activity_value>
7.882728704344236

> <Publication ID>
Ece_2013

> <standard_units>
nM

> hash
3333761597320278432

$$$$
1_
XXILIB    08252103513D 0   0.00000     0.00000

 24 25  0     1  0            999 V2000
   -1.0171    0.0643    8.0590 S   0  0  1  0  0  6           0  0  0
   -1.6671    1.1985    8.6861 O   0  0  0  0  0  2           0  0  0
    0.4241   -0.0883    8.1055 O   0  0  0  0  0  2           0  0  0
    1.3868    0.0000   -0.0000 O   0  0  0  0  0  2           0  0  0
   -0.6681    0.0015   -3.5463 O   0  0  0  0  0  2           0  0  0
   -0.6647    0.0000    1.1811 N   0  0  0  0  0  3           0  0  0
   -2.7324   -0.0023   -0.0030 N   0  0  0  0  0  3           0  0  0
   -1.7519   -1.3758    8.6003 N   0  0  0  0  0  3           0  0  0
   -2.7434   -0.0034    2.3493 N   0  0  0  0  0  3           0  0  0
   -1.4987    0.0474    6.3628 C   0  0  0  0  0  4           0  0  0
    0.0000    0.0000    0.0000 C   0  0  0  0  0  4           0  0  0
   -2.0211   -0.0020    1.1483 C   0  0  0  0  0  4           0  0  0
   -2.0338   -0.0008   -1.1579 C   0  0  0  0  0  4           0  0  0
   -2.3082   -0.0031    3.6764 C   0  0  0  0  0  4           0  0  0
   -0.6559    0.0005   -1.2158 C   0  0  0  0  0  4           0  0  0
   -0.6921   -0.5725    5.4124 C   0  0  0  0  0  4           0  0  0
   -2.7082    0.6332    5.9980 C   0  0  0  0  0  4           0  0  0
   -1.0979   -0.5932    4.0749 C   0  0  0  0  0  4           0  0  0
   -3.1048    0.6082    4.6592 C   0  0  0  0  0  4           0  0  0
   -0.0026    0.0011   -2.5199 C   0  0  0  0  0  4           0  0  0
    2.0024   -0.6449    1.1169 C   0  0  1  0  0  4           0  0  0
    3.3444   -1.2165    0.6492 C   0  0  0  0  0  4           0  0  0
    2.2284    0.3795    2.2278 C   0  0  0  0  0  4           0  0  0
    4.2801   -0.1350    0.1260 C   0  0  0  0  0  4           0  0  0
  1  2  2  0     0  0
  1  3  2  0     0  0
  1  8  1  0     0  0
  1 10  1  0     0  0
  4 11  1  0     0  0
  4 21  1  0     0  0
  5 20  2  0     0  0
  6 11  2  0     0  0
  6 12  1  0     0  0
  7 12  2  0     0  0
  7 13  1  0     0  0
  9 12  1  0     0  0
  9 14  1  0     0  0
 10 16  2  0     0  0
 10 17  1  0     0  0
 11 15  1  0     0  0
 13 15  2  0     0  0
 14 18  2  0     0  0
 14 19  1  0     0  0
 15 20  1  0     0  0
 16 18  1  0     0  0
 17 19  2  0     0  0
 21 22  1  0     0  0
 21 23  1  0     0  0
 22 24  1  0     0  0
M  END
> <Compound >
1

> <standard_type>
pIC50

> <# Confs.>
25

> <canonical_smiles>
O=S(C1=CC=C(NC2=NC=C(C([H])=O)C(O[C@H](C)CC)=N2)C=C1)(N)=O

> <standard_relation>
=

> <predicted_activity_value>
7.698970004336019

> <actual_activity_value>
7.882728704344236

> <Publication ID>
Ece_2013

> <standard_units>
nM

> hash
3333761597320278432

$$$$
1_
XXILIB    08252103513D 0   0.00000     0.00000

 24 25  0     1  0            999 V2000
   -1.5394   -2.2194    7.7553 S   0  0  1  0  0  6           0  0  0
   -0.6006   -3.3123    7.5927 O   0  0  0  0  0  2           0  0  0
   -2.8158   -2.4247    8.4120 O   0  0  0  0  0  2           0  0  0
    1.3868   -0.0000   -0.0000 O   0  0  0  0  0  2           0  0  0
   -0.6681    0.0015   -3.5463 O   0  0  0  0  0  2           0  0  0
   -0.6647    0.0000    1.1811 N   0  0  0  0  0  3           0  0  0
   -2.7324   -0.0023   -0.0030 N   0  0  0  0  0  3           0  0  0
   -0.7431   -0.8959    8.4772 N   0  0  0  0  0  3           0  0  0
   -2.7434   -0.0034    2.3493 N   0  0  0  0  0  3           0  0  0
   -1.8662   -1.5574    6.1540 C   0  0  0  0  0  4           0  0  0
    0.0000    0.0000    0.0000 C   0  0  0  0  0  4           0  0  0
   -2.0211   -0.0020    1.1483 C   0  0  0  0  0  4           0  0  0
   -2.0338   -0.0008   -1.1579 C   0  0  0  0  0  4           0  0  0
   -2.4288   -0.5318    3.6033 C   0  0  0  0  0  4           0  0  0
   -0.6559    0.0005   -1.2158 C   0  0  0  0  0  4           0  0  0
   -0.9390   -1.7175    5.1279 C   0  0  0  0  0  4           0  0  0
   -3.0748   -0.9040    5.9268 C   0  0  0  0  0  4           0  0  0
   -1.2222   -1.2028    3.8594 C   0  0  0  0  0  4           0  0  0
   -3.3483   -0.3925    4.6565 C   0  0  0  0  0  4           0  0  0
   -0.0026    0.0011   -2.5199 C   0  0  0  0  0  4           0  0  0
    2.0024    0.6449    1.1169 C   0  0  1  0  0  4           0  0  0
    3.3444   -0.0460    1.3781 C   0  0  0  0  0  4           0  0  0
    2.2284    2.1191    0.7852 C   0  0  0  0  0  4           0  0  0
    3.1783   -1.5267    1.6925 C   0  0  0  0  0  4           0  0  0
  1  2  2  0     0  0
  1  3  2  0     0  0
  1  8  1  0     0  0
  1 10  1  0     0  0
  4 11  1  0     0  0
  4 21  1  0     0  0
  5 20  2  0     0  0
  6 11  2  0     0  0
  6 12  1  0     0  0
  7 12  2  0     0  0
  7 13  1  0     0  0
  9 12  1  0     0  0
  9 14  1  0     0  0
 10 16  2  0     0  0
 10 17  1  0     0  0
 11 15  1  0     0  0
 13 15  2  0     0  0
 14 18  2  0     0  0
 14 19  1  0     0  0
 15 20  1  0     0  0
 16 18  1  0     0  0
 17 19  2  0     0  0
 21 22  1  0     0  0
 21 23  1  0     0  0
 22 24  1  0     0  0
M  END
> <Compound >
1

> <standard_type>
pIC50

> <# Confs.>
25

> <canonical_smiles>
O=S(C1=CC=C(NC2=NC=C(C([H])=O)C(O[C@H](C)CC)=N2)C=C1)(N)=O

> <standard_relation>
=

> <predicted_activity_value>
7.698970004336019

> <actual_activity_value>
7.882728704344236

> <Publication ID>
Ece_2013

> <standard_units>
nM

> hash
3333761597320278432

$$$$
1_
XXILIB    08252103513D 0   0.00000     0.00000

 24 25  0     1  0            999 V2000
   -1.5360    2.1933    7.7625 S   0  0  1  0  0  6           0  0  0
   -0.0952    2.2713    7.9032 O   0  0  0  0  0  2           0  0  0
   -2.3371    1.4359    8.7044 O   0  0  0  0  0  2           0  0  0
    1.3868    0.0000   -0.0000 O   0  0  0  0  0  2           0  0  0
   -0.6681    0.0015   -3.5463 O   0  0  0  0  0  2           0  0  0
   -0.6647   -0.0000    1.1811 N   0  0  0  0  0  3           0  0  0
   -2.7324   -0.0023   -0.0030 N   0  0  0  0  0  3           0  0  0
   -2.1741    3.7681    7.6219 N   0  0  0  0  0  3           0  0  0
   -2.7434   -0.0034    2.3493 N   0  0  0  0  0  3           0  0  0
   -1.8790    1.5675    6.1499 C   0  0  0  0  0  4           0  0  0
    0.0000    0.0000    0.0000 C   0  0  0  0  0  4           0  0  0
   -2.0211   -0.0020    1.1483 C   0  0  0  0  0  4           0  0  0
   -2.0338   -0.0008   -1.1579 C   0  0  0  0  0  4           0  0  0
   -2.4304    0.5252    3.6036 C   0  0  0  0  0  4           0  0  0
   -0.6559    0.0005   -1.2158 C   0  0  0  0  0  4           0  0  0
   -0.9460    1.7183    5.1277 C   0  0  0  0  0  4           0  0  0
   -3.0782    0.8958    5.9268 C   0  0  0  0  0  4           0  0  0
   -1.2257    1.1997    3.8600 C   0  0  0  0  0  4           0  0  0
   -3.3491    0.3819    4.6569 C   0  0  0  0  0  4           0  0  0
   -0.0026    0.0011   -2.5199 C   0  0  0  0  0  4           0  0  0
    2.0024   -0.6449    1.1169 C   0  0  1  0  0  4           0  0  0
    2.8628   -1.7935    0.5815 C   0  0  0  0  0  4           0  0  0
    2.8782    0.3628    1.8601 C   0  0  0  0  0  4           0  0  0
    2.0409   -2.8180   -0.1891 C   0  0  0  0  0  4           0  0  0
  1  2  2  0     0  0
  1  3  2  0     0  0
  1  8  1  0     0  0
  1 10  1  0     0  0
  4 11  1  0     0  0
  4 21  1  0     0  0
  5 20  2  0     0  0
  6 11  2  0     0  0
  6 12  1  0     0  0
  7 12  2  0     0  0
  7 13  1  0     0  0
  9 12  1  0     0  0
  9 14  1  0     0  0
 10 16  2  0     0  0
 10 17  1  0     0  0
 11 15  1  0     0  0
 13 15  2  0     0  0
 14 18  2  0     0  0
 14 19  1  0     0  0
 15 20  1  0     0  0
 16 18  1  0     0  0
 17 19  2  0     0  0
 21 22  1  0     0  0
 21 23  1  0     0  0
 22 24  1  0     0  0
M  END
> <Compound >
1

> <standard_type>
pIC50

> <# Confs.>
25

> <canonical_smiles>
O=S(C1=CC=C(NC2=NC=C(C([H])=O)C(O[C@H](C)CC)=N2)C=C1)(N)=O

> <standard_relation>
=

> <predicted_activity_value>
7.698970004336019

> <actual_activity_value>
7.882728704344236

> <Publication ID>
Ece_2013

> <standard_units>
nM

> hash
3333761597320278432

$$$$
1_
XXILIB    08252103513D 0   0.00000     0.00000

 24 25  0     1  0            999 V2000
   -1.0060   -0.0891    8.0554 S   0  0  1  0  0  6           0  0  0
    0.4393    0.0217    8.0854 O   0  0  0  0  0  2           0  0  0
   -1.6805   -1.2124    8.6764 O   0  0  0  0  0  2           0  0  0
    1.3868    0.0000    0.0000 O   0  0  0  0  0  2           0  0  0
   -0.6681    0.0015   -3.5463 O   0  0  0  0  0  2           0  0  0
   -0.6647    0.0000    1.1811 N   0  0  0  0  0  3           0  0  0
   -2.7324   -0.0023   -0.0030 N   0  0  0  0  0  3           0  0  0
   -1.6940    1.3633    8.6246 N   0  0  0  0  0  3           0  0  0
   -2.7434   -0.0034    2.3493 N   0  0  0  0  0  3           0  0  0
   -1.5076   -0.0363    6.3657 C   0  0  0  0  0  4           0  0  0
    0.0000    0.0000    0.0000 C   0  0  0  0  0  4           0  0  0
   -2.0211   -0.0020    1.1483 C   0  0  0  0  0  4           0  0  0
   -2.0338   -0.0008   -1.1579 C   0  0  0  0  0  4           0  0  0
   -2.3082   -0.0031    3.6764 C   0  0  0  0  0  4           0  0  0
   -0.6559    0.0005   -1.2158 C   0  0  0  0  0  4           0  0  0
   -0.6959    0.5739    5.4134 C   0  0  0  0  0  4           0  0  0
   -2.7072   -0.6404    5.9979 C   0  0  0  0  0  4           0  0  0
   -1.0997    0.5904    4.0752 C   0  0  0  0  0  4           0  0  0
   -3.1026   -0.6181    4.6588 C   0  0  0  0  0  4           0  0  0
   -0.0026    0.0011   -2.5199 C   0  0  0  0  0  4           0  0  0
    2.0024   -0.6449    1.1169 C   0  0  1  0  0  4           0  0  0
    2.2050   -2.1196    0.7557 C   0  0  0  0  0  4           0  0  0
    3.3513    0.0152    1.3986 C   0  0  0  0  0  4           0  0  0
    1.0090   -2.9777    1.1457 C   0  0  0  0  0  4           0  0  0
  1  2  2  0     0  0
  1  3  2  0     0  0
  1  8  1  0     0  0
  1 10  1  0     0  0
  4 11  1  0     0  0
  4 21  1  0     0  0
  5 20  2  0     0  0
  6 11  2  0     0  0
  6 12  1  0     0  0
  7 12  2  0     0  0
  7 13  1  0     0  0
  9 12  1  0     0  0
  9 14  1  0     0  0
 10 16  2  0     0  0
 10 17  1  0     0  0
 11 15  1  0     0  0
 13 15  2  0     0  0
 14 18  2  0     0  0
 14 19  1  0     0  0
 15 20  1  0     0  0
 16 18  1  0     0  0
 17 19  2  0     0  0
 21 22  1  0     0  0
 21 23  1  0     0  0
 22 24  1  0     0  0
M  END
> <Compound >
1

> <standard_type>
pIC50

> <# Confs.>
25

> <canonical_smiles>
O=S(C1=CC=C(NC2=NC=C(C([H])=O)C(O[C@H](C)CC)=N2)C=C1)(N)=O

> <standard_relation>
=

> <predicted_activity_value>
7.698970004336019

> <actual_activity_value>
7.882728704344236

> <Publication ID>
Ece_2013

> <standard_units>
nM

> hash
3333761597320278432

$$$$
1_
XXILIB    08252103513D 0   0.00000     0.00000

 24 25  0     1  0            999 V2000
   -8.5963   -0.0792    3.5002 S   0  0  1  0  0  6           0  0  0
   -9.2019    1.0472    2.8170 O   0  0  0  0  0  2           0  0  0
   -8.7338   -0.2427    4.9343 O   0  0  0  0  0  2           0  0  0
    1.3868   -0.0000   -0.0000 O   0  0  0  0  0  2           0  0  0
   -0.6681    0.0015   -3.5463 O   0  0  0  0  0  2           0  0  0
   -0.6647    0.0000    1.1811 N   0  0  0  0  0  3           0  0  0
   -2.7324   -0.0023   -0.0030 N   0  0  0  0  0  3           0  0  0
   -9.0598   -1.5243    2.7233 N   0  0  0  0  0  3           0  0  0
   -2.7434   -0.0034    2.3493 N   0  0  0  0  0  3           0  0  0
   -6.8722   -0.0598    3.1306 C   0  0  0  0  0  4           0  0  0
    0.0000    0.0000   -0.0000 C   0  0  0  0  0  4           0  0  0
   -2.0211   -0.0020    1.1483 C   0  0  0  0  0  4           0  0  0
   -2.0338   -0.0008   -1.1579 C   0  0  0  0  0  4           0  0  0
   -4.1198   -0.0055    2.5868 C   0  0  0  0  0  4           0  0  0
   -0.6559    0.0005   -1.2158 C   0  0  0  0  0  4           0  0  0
   -6.4114    0.5626    1.9737 C   0  0  0  0  0  4           0  0  0
   -5.9825   -0.6462    4.0271 C   0  0  0  0  0  4           0  0  0
   -5.0396    0.5852    1.7054 C   0  0  0  0  0  4           0  0  0
   -4.6140   -0.6194    3.7501 C   0  0  0  0  0  4           0  0  0
   -0.0026    0.0011   -2.5199 C   0  0  0  0  0  4           0  0  0
    2.0024    0.6449    1.1169 C   0  0  1  0  0  4           0  0  0
    2.8628   -0.3932    1.8439 C   0  0  0  0  0  4           0  0  0
    2.8782    1.7923    0.6159 C   0  0  0  0  0  4           0  0  0
    2.0409   -1.5728    2.3460 C   0  0  0  0  0  4           0  0  0
  1  2  2  0     0  0
  1  3  2  0     0  0
  1  8  1  0     0  0
  1 10  1  0     0  0
  4 11  1  0     0  0
  4 21  1  0     0  0
  5 20  2  0     0  0
  6 11  2  0     0  0
  6 12  1  0     0  0
  7 12  2  0     0  0
  7 13  1  0     0  0
  9 12  1  0     0  0
  9 14  1  0     0  0
 10 16  2  0     0  0
 10 17  1  0     0  0
 11 15  1  0     0  0
 13 15  2  0     0  0
 14 18  2  0     0  0
 14 19  1  0     0  0
 15 20  1  0     0  0
 16 18  1  0     0  0
 17 19  2  0     0  0
 21 22  1  0     0  0
 21 23  1  0     0  0
 22 24  1  0     0  0
M  END
> <Compound >
1

> <standard_type>
pIC50

> <# Confs.>
25

> <canonical_smiles>
O=S(C1=CC=C(NC2=NC=C(C([H])=O)C(O[C@H](C)CC)=N2)C=C1)(N)=O

> <standard_relation>
=

> <predicted_activity_value>
7.698970004336019

> <actual_activity_value>
7.882728704344236

> <Publication ID>
Ece_2013

> <standard_units>
nM

> hash
3333761597320278432

$$$$
1_
XXILIB    08252103513D 0   0.00000     0.00000

 24 25  0     1  0            999 V2000
   -8.5985    0.0743    3.4888 S   0  0  1  0  0  6           0  0  0
   -8.7503    0.2086    4.9244 O   0  0  0  0  0  2           0  0  0
   -9.2208   -1.0223    2.7729 O   0  0  0  0  0  2           0  0  0
    1.3868   -0.0000   -0.0000 O   0  0  0  0  0  2           0  0  0
   -0.6681    0.0015   -3.5463 O   0  0  0  0  0  2           0  0  0
   -0.6647    0.0000    1.1811 N   0  0  0  0  0  3           0  0  0
   -2.7324   -0.0023   -0.0030 N   0  0  0  0  0  3           0  0  0
   -9.0196    1.5459    2.7379 N   0  0  0  0  0  3           0  0  0
   -2.7434   -0.0034    2.3493 N   0  0  0  0  0  3           0  0  0
   -6.8707    0.0239    3.1400 C   0  0  0  0  0  4           0  0  0
    0.0000    0.0000   -0.0000 C   0  0  0  0  0  4           0  0  0
   -2.0211   -0.0020    1.1483 C   0  0  0  0  0  4           0  0  0
   -2.0338   -0.0008   -1.1579 C   0  0  0  0  0  4           0  0  0
   -4.1198   -0.0055    2.5868 C   0  0  0  0  0  4           0  0  0
   -0.6559    0.0005   -1.2158 C   0  0  0  0  0  4           0  0  0
   -6.4093   -0.5839    1.9756 C   0  0  0  0  0  4           0  0  0
   -5.9842    0.6273    4.0283 C   0  0  0  0  0  4           0  0  0
   -5.0378   -0.5984    1.7051 C   0  0  0  0  0  4           0  0  0
   -4.6159    0.6070    3.7500 C   0  0  0  0  0  4           0  0  0
   -0.0026    0.0011   -2.5199 C   0  0  0  0  0  4           0  0  0
    2.0024    0.6449    1.1169 C   0  0  1  0  0  4           0  0  0
    2.8628   -0.3932    1.8439 C   0  0  0  0  0  4           0  0  0
    2.8782    1.7923    0.6159 C   0  0  0  0  0  4           0  0  0
    2.0409   -1.5728    2.3460 C   0  0  0  0  0  4           0  0  0
  1  2  2  0     0  0
  1  3  2  0     0  0
  1  8  1  0     0  0
  1 10  1  0     0  0
  4 11  1  0     0  0
  4 21  1  0     0  0
  5 20  2  0     0  0
  6 11  2  0     0  0
  6 12  1  0     0  0
  7 12  2  0     0  0
  7 13  1  0     0  0
  9 12  1  0     0  0
  9 14  1  0     0  0
 10 16  2  0     0  0
 10 17  1  0     0  0
 11 15  1  0     0  0
 13 15  2  0     0  0
 14 18  2  0     0  0
 14 19  1  0     0  0
 15 20  1  0     0  0
 16 18  1  0     0  0
 17 19  2  0     0  0
 21 22  1  0     0  0
 21 23  1  0     0  0
 22 24  1  0     0  0
M  END
> <Compound >
1

> <standard_type>
pIC50

> <# Confs.>
25

> <canonical_smiles>
O=S(C1=CC=C(NC2=NC=C(C([H])=O)C(O[C@H](C)CC)=N2)C=C1)(N)=O

> <standard_relation>
=

> <predicted_activity_value>
7.698970004336019

> <actual_activity_value>
7.882728704344236

> <Publication ID>
Ece_2013

> <standard_units>
nM

> hash
3333761597320278432

$$$$
1_
XXILIB    08252103513D 0   0.00000     0.00000

 24 25  0     1  0            999 V2000
   -1.0060   -0.0891    8.0554 S   0  0  1  0  0  6           0  0  0
    0.4393    0.0217    8.0854 O   0  0  0  0  0  2           0  0  0
   -1.6805   -1.2124    8.6764 O   0  0  0  0  0  2           0  0  0
    1.3868   -0.0000   -0.0000 O   0  0  0  0  0  2           0  0  0
   -0.6681    0.0015   -3.5463 O   0  0  0  0  0  2           0  0  0
   -0.6647    0.0000    1.1811 N   0  0  0  0  0  3           0  0  0
   -2.7324   -0.0023   -0.0030 N   0  0  0  0  0  3           0  0  0
   -1.6940    1.3633    8.6246 N   0  0  0  0  0  3           0  0  0
   -2.7434   -0.0034    2.3493 N   0  0  0  0  0  3           0  0  0
   -1.5076   -0.0363    6.3657 C   0  0  0  0  0  4           0  0  0
    0.0000    0.0000    0.0000 C   0  0  0  0  0  4           0  0  0
   -2.0211   -0.0020    1.1483 C   0  0  0  0  0  4           0  0  0
   -2.0338   -0.0008   -1.1579 C   0  0  0  0  0  4           0  0  0
   -2.3082   -0.0031    3.6764 C   0  0  0  0  0  4           0  0  0
   -0.6559    0.0005   -1.2158 C   0  0  0  0  0  4           0  0  0
   -0.6959    0.5739    5.4134 C   0  0  0  0  0  4           0  0  0
   -2.7072   -0.6404    5.9979 C   0  0  0  0  0  4           0  0  0
   -1.0997    0.5904    4.0752 C   0  0  0  0  0  4           0  0  0
   -3.1026   -0.6181    4.6588 C   0  0  0  0  0  4           0  0  0
   -0.0026    0.0011   -2.5199 C   0  0  0  0  0  4           0  0  0
    2.0024    1.1169    0.6449 C   0  0  1  0  0  4           0  0  0
    3.3444    0.6492    1.2165 C   0  0  0  0  0  4           0  0  0
    2.2284    2.2278   -0.3795 C   0  0  0  0  0  4           0  0  0
    3.1783   -0.4759    2.2291 C   0  0  0  0  0  4           0  0  0
  1  2  2  0     0  0
  1  3  2  0     0  0
  1  8  1  0     0  0
  1 10  1  0     0  0
  4 11  1  0     0  0
  4 21  1  0     0  0
  5 20  2  0     0  0
  6 11  2  0     0  0
  6 12  1  0     0  0
  7 12  2  0     0  0
  7 13  1  0     0  0
  9 12  1  0     0  0
  9 14  1  0     0  0
 10 16  2  0     0  0
 10 17  1  0     0  0
 11 15  1  0     0  0
 13 15  2  0     0  0
 14 18  2  0     0  0
 14 19  1  0     0  0
 15 20  1  0     0  0
 16 18  1  0     0  0
 17 19  2  0     0  0
 21 22  1  0     0  0
 21 23  1  0     0  0
 22 24  1  0     0  0
M  END
> <Compound >
1

> <standard_type>
pIC50

> <# Confs.>
25

> <canonical_smiles>
O=S(C1=CC=C(NC2=NC=C(C([H])=O)C(O[C@H](C)CC)=N2)C=C1)(N)=O

> <standard_relation>
=

> <predicted_activity_value>
7.698970004336019

> <actual_activity_value>
7.882728704344236

> <Publication ID>
Ece_2013

> <standard_units>
nM

> hash
3333761597320278432

$$$$
10_
XXILIB    08252103513D 0   0.00000     0.00000

 18 19  0     1  0            999 V2000
    0.0000    0.0000   -0.0000 O   0  0  0  0  0  2           0  0  0
    2.0548   -0.0000    1.1744 N   0  0  0  0  0  3           0  0  0
    4.0966    0.0301   -0.0471 N   0  0  0  0  0  3           0  0  0
    1.2923    0.0187   -2.4413 N   0  0  0  0  0  3           0  0  0
    4.1124    0.0008    2.3034 N   0  0  0  0  0  3           0  0  0
    4.1257    0.0447   -2.4087 N   0  0  0  0  0  3           0  0  0
    1.3856    0.0000    0.0000 C   0  0  0  0  0  4           0  0  0
    3.4023    0.0098    1.1137 C   0  0  0  0  0  4           0  0  0
    3.4070    0.0478   -1.2143 C   0  0  0  0  0  4           0  0  0
    2.0144    0.0045   -1.2386 C   0  0  0  0  0  4           0  0  0
   -0.5860   -0.0000    1.3018 C   0  0  0  0  0  4           0  0  0
    0.1324   -0.5451   -2.4451 C   0  0  0  0  0  4           0  0  0
   -2.1044   -0.0000    1.1524 C   0  0  1  0  0  4           0  0  0
   -2.8027   -0.0000    2.5231 C   0  0  0  0  0  4           0  0  0
   -2.5588    1.1994    0.3097 C   0  0  0  0  0  4           0  0  0
   -4.3225    0.0628    2.3847 C   0  0  0  0  0  4           0  0  0
   -4.0785    1.2560    0.1754 C   0  0  0  0  0  4           0  0  0
   -4.7637    1.2519    1.5378 C   0  0  0  0  0  4           0  0  0
  1  7  1  0     0  0
  1 11  1  0     0  0
  2  7  2  0     0  0
  2  8  1  0     0  0
  3  8  2  0     0  0
  3  9  1  0     0  0
  4 10  1  0     0  0
  4 12  2  0     0  0
  5  8  1  0     0  0
  6  9  1  0     0  0
  7 10  1  0     0  0
  9 10  2  0     0  0
 11 13  1  0     0  0
 13 14  1  0     0  0
 13 15  1  0     0  0
 14 16  1  0     0  0
 15 17  1  0     0  0
 16 18  1  0     0  0
 17 18  1  0     0  0
M  END
> <Compound >
10

> <standard_type>
pIC50

> <# Confs.>
25

> <canonical_smiles>
NC1=NC(N)=C(N=C)C(OCC2CCCCC2)=N1

> <standard_relation>
=

> <predicted_activity_value>
6.017457417697057

> <actual_activity_value>
5.657577319177793

> <Publication ID>
nan

> <standard_units>
nM

> hash
10067028176825304050

$$$$
10_
XXILIB    08252103513D 0   0.00000     0.00000

 18 19  0     1  0            999 V2000
    0.0000    0.0000   -0.0000 O   0  0  0  0  0  2           0  0  0
    2.0548   -0.0000    1.1744 N   0  0  0  0  0  3           0  0  0
    4.0966    0.0301   -0.0471 N   0  0  0  0  0  3           0  0  0
    1.2923    0.0187   -2.4413 N   0  0  0  0  0  3           0  0  0
    4.1124    0.0008    2.3034 N   0  0  0  0  0  3           0  0  0
    4.1257    0.0447   -2.4087 N   0  0  0  0  0  3           0  0  0
    1.3856    0.0000    0.0000 C   0  0  0  0  0  4           0  0  0
    3.4023    0.0098    1.1137 C   0  0  0  0  0  4           0  0  0
    3.4070    0.0478   -1.2143 C   0  0  0  0  0  4           0  0  0
    2.0144    0.0045   -1.2386 C   0  0  0  0  0  4           0  0  0
   -0.5860   -0.0000    1.3018 C   0  0  0  0  0  4           0  0  0
    0.1407    0.5993   -2.4366 C   0  0  0  0  0  4           0  0  0
   -2.1044   -0.0000    1.1524 C   0  0  1  0  0  4           0  0  0
   -2.5924   -1.2405    0.3848 C   0  0  0  0  0  4           0  0  0
   -2.7771    0.0881    2.5290 C   0  0  0  0  0  4           0  0  0
   -4.1158   -1.2815    0.2840 C   0  0  0  0  0  4           0  0  0
   -4.2993    0.0467    2.4210 C   0  0  0  0  0  4           0  0  0
   -4.7753   -1.1836    1.6557 C   0  0  0  0  0  4           0  0  0
  1  7  1  0     0  0
  1 11  1  0     0  0
  2  7  2  0     0  0
  2  8  1  0     0  0
  3  8  2  0     0  0
  3  9  1  0     0  0
  4 10  1  0     0  0
  4 12  2  0     0  0
  5  8  1  0     0  0
  6  9  1  0     0  0
  7 10  1  0     0  0
  9 10  2  0     0  0
 11 13  1  0     0  0
 13 14  1  0     0  0
 13 15  1  0     0  0
 14 16  1  0     0  0
 15 17  1  0     0  0
 16 18  1  0     0  0
 17 18  1  0     0  0
M  END
> <Compound >
10

> <standard_type>
pIC50

> <# Confs.>
25

> <canonical_smiles>
NC1=NC(N)=C(N=C)C(OCC2CCCCC2)=N1

> <standard_relation>
=

> <predicted_activity_value>
6.017457417697057

> <actual_activity_value>
5.657577319177793

> <Publication ID>
nan

> <standard_units>
nM

> hash
10067028176825304050

$$$$
10_
XXILIB    08252103513D 0   0.00000     0.00000

 18 19  0     1  0            999 V2000
    0.0000    0.0000   -0.0000 O   0  0  0  0  0  2           0  0  0
    2.0548   -0.0000    1.1744 N   0  0  0  0  0  3           0  0  0
    4.0966    0.0301   -0.0471 N   0  0  0  0  0  3           0  0  0
    1.2923    0.0187   -2.4413 N   0  0  0  0  0  3           0  0  0
    4.1124    0.0008    2.3034 N   0  0  0  0  0  3           0  0  0
    4.1257    0.0447   -2.4087 N   0  0  0  0  0  3           0  0  0
    1.3856    0.0000    0.0000 C   0  0  0  0  0  4           0  0  0
    3.4023    0.0098    1.1137 C   0  0  0  0  0  4           0  0  0
    3.4070    0.0478   -1.2143 C   0  0  0  0  0  4           0  0  0
    2.0144    0.0045   -1.2386 C   0  0  0  0  0  4           0  0  0
   -0.5860   -0.0000    1.3018 C   0  0  0  0  0  4           0  0  0
    0.1324   -0.5451   -2.4451 C   0  0  0  0  0  4           0  0  0
   -2.1044   -0.0000    1.1524 C   0  0  1  0  0  4           0  0  0
   -2.5924    1.2405    0.3848 C   0  0  0  0  0  4           0  0  0
   -2.5738   -1.2875    0.4615 C   0  0  0  0  0  4           0  0  0
   -4.1052    1.2187    0.1757 C   0  0  0  0  0  4           0  0  0
   -4.0864   -1.3027    0.2559 C   0  0  0  0  0  4           0  0  0
   -4.5630   -0.0684   -0.5023 C   0  0  0  0  0  4           0  0  0
  1  7  1  0     0  0
  1 11  1  0     0  0
  2  7  2  0     0  0
  2  8  1  0     0  0
  3  8  2  0     0  0
  3  9  1  0     0  0
  4 10  1  0     0  0
  4 12  2  0     0  0
  5  8  1  0     0  0
  6  9  1  0     0  0
  7 10  1  0     0  0
  9 10  2  0     0  0
 11 13  1  0     0  0
 13 14  1  0     0  0
 13 15  1  0     0  0
 14 16  1  0     0  0
 15 17  1  0     0  0
 16 18  1  0     0  0
 17 18  1  0     0  0
M  END
> <Compound >
10

> <standard_type>
pIC50

> <# Confs.>
25

> <canonical_smiles>
NC1=NC(N)=C(N=C)C(OCC2CCCCC2)=N1

> <standard_relation>
=

> <predicted_activity_value>
6.017457417697057

> <actual_activity_value>
5.657577319177793

> <Publication ID>
nan

> <standard_units>
nM

> hash
10067028176825304050

$$$$
10_
XXILIB    08252103513D 0   0.00000     0.00000

 18 19  0     1  0            999 V2000
    0.0000    0.0000   -0.0000 O   0  0  0  0  0  2           0  0  0
    2.0548   -0.0000    1.1744 N   0  0  0  0  0  3           0  0  0
    4.0966    0.0301   -0.0471 N   0  0  0  0  0  3           0  0  0
    1.2923    0.0187   -2.4413 N   0  0  0  0  0  3           0  0  0
    4.1124    0.0008    2.3034 N   0  0  0  0  0  3           0  0  0
    4.1257    0.0447   -2.4087 N   0  0  0  0  0  3           0  0  0
    1.3856    0.0000    0.0000 C   0  0  0  0  0  4           0  0  0
    3.4023    0.0098    1.1137 C   0  0  0  0  0  4           0  0  0
    3.4070    0.0478   -1.2143 C   0  0  0  0  0  4           0  0  0
    2.0144    0.0045   -1.2386 C   0  0  0  0  0  4           0  0  0
   -0.5860   -0.0000    1.3018 C   0  0  0  0  0  4           0  0  0
    0.1324   -0.5451   -2.4451 C   0  0  0  0  0  4           0  0  0
   -2.1044   -0.0000    1.1524 C   0  0  1  0  0  4           0  0  0
   -2.6204    1.2317    0.3872 C   0  0  0  0  0  4           0  0  0
   -2.8023   -0.1158    2.5158 C   0  0  0  0  0  4           0  0  0
   -2.5420    2.5187    1.2069 C   0  0  0  0  0  4           0  0  0
   -2.7183    1.1691    3.3379 C   0  0  0  0  0  4           0  0  0
   -3.2388    2.3710    2.5561 C   0  0  0  0  0  4           0  0  0
  1  7  1  0     0  0
  1 11  1  0     0  0
  2  7  2  0     0  0
  2  8  1  0     0  0
  3  8  2  0     0  0
  3  9  1  0     0  0
  4 10  1  0     0  0
  4 12  2  0     0  0
  5  8  1  0     0  0
  6  9  1  0     0  0
  7 10  1  0     0  0
  9 10  2  0     0  0
 11 13  1  0     0  0
 13 14  1  0     0  0
 13 15  1  0     0  0
 14 16  1  0     0  0
 15 17  1  0     0  0
 16 18  1  0     0  0
 17 18  1  0     0  0
M  END
> <Compound >
10

> <standard_type>
pIC50

> <# Confs.>
25

> <canonical_smiles>
NC1=NC(N)=C(N=C)C(OCC2CCCCC2)=N1

> <standard_relation>
=

> <predicted_activity_value>
6.017457417697057

> <actual_activity_value>
5.657577319177793

> <Publication ID>
nan

> <standard_units>
nM

> hash
10067028176825304050

$$$$
10_
XXILIB    08252103513D 0   0.00000     0.00000

 18 19  0     1  0            999 V2000
    0.0000    0.0000   -0.0000 O   0  0  0  0  0  2           0  0  0
    2.0548   -0.0000    1.1744 N   0  0  0  0  0  3           0  0  0
    4.0966    0.0301   -0.0471 N   0  0  0  0  0  3           0  0  0
    1.2923    0.0187   -2.4413 N   0  0  0  0  0  3           0  0  0
    4.1124    0.0008    2.3034 N   0  0  0  0  0  3           0  0  0
    4.1257    0.0447   -2.4087 N   0  0  0  0  0  3           0  0  0
    1.3856    0.0000    0.0000 C   0  0  0  0  0  4           0  0  0
    3.4023    0.0098    1.1137 C   0  0  0  0  0  4           0  0  0
    3.4070    0.0478   -1.2143 C   0  0  0  0  0  4           0  0  0
    2.0144    0.0045   -1.2386 C   0  0  0  0  0  4           0  0  0
   -0.5860   -0.0000    1.3018 C   0  0  0  0  0  4           0  0  0
    0.1407    0.5993   -2.4366 C   0  0  0  0  0  4           0  0  0
   -2.1044   -0.0000    1.1524 C   0  0  1  0  0  4           0  0  0
   -2.8293   -0.0000    2.5102 C   0  0  0  0  0  4           0  0  0
   -2.5832   -1.1763    0.2886 C   0  0  0  0  0  4           0  0  0
   -2.7412   -1.3434    3.2328 C   0  0  0  0  0  4           0  0  0
   -2.4893   -2.5201    1.0090 C   0  0  0  0  0  4           0  0  0
   -3.2184   -2.4914    2.3485 C   0  0  0  0  0  4           0  0  0
  1  7  1  0     0  0
  1 11  1  0     0  0
  2  7  2  0     0  0
  2  8  1  0     0  0
  3  8  2  0     0  0
  3  9  1  0     0  0
  4 10  1  0     0  0
  4 12  2  0     0  0
  5  8  1  0     0  0
  6  9  1  0     0  0
  7 10  1  0     0  0
  9 10  2  0     0  0
 11 13  1  0     0  0
 13 14  1  0     0  0
 13 15  1  0     0  0
 14 16  1  0     0  0
 15 17  1  0     0  0
 16 18  1  0     0  0
 17 18  1  0     0  0
M  END
> <Compound >
10

> <standard_type>
pIC50

> <# Confs.>
25

> <canonical_smiles>
NC1=NC(N)=C(N=C)C(OCC2CCCCC2)=N1

> <standard_relation>
=

> <predicted_activity_value>
6.017457417697057

> <actual_activity_value>
5.657577319177793

> <Publication ID>
nan

> <standard_units>
nM

> hash
10067028176825304050

$$$$
10_
XXILIB    08252103513D 0   0.00000     0.00000

 18 19  0     1  0            999 V2000
    0.0000    0.0000    0.0000 O   0  0  0  0  0  2           0  0  0
    2.0548   -0.0000    1.1744 N   0  0  0  0  0  3           0  0  0
    4.0966    0.0301   -0.0471 N   0  0  0  0  0  3           0  0  0
    1.2923    0.0187   -2.4413 N   0  0  0  0  0  3           0  0  0
    4.1124    0.0008    2.3034 N   0  0  0  0  0  3           0  0  0
    4.1257    0.0447   -2.4087 N   0  0  0  0  0  3           0  0  0
    1.3856    0.0000    0.0000 C   0  0  0  0  0  4           0  0  0
    3.4023    0.0098    1.1137 C   0  0  0  0  0  4           0  0  0
    3.4070    0.0478   -1.2143 C   0  0  0  0  0  4           0  0  0
    2.0144    0.0045   -1.2386 C   0  0  0  0  0  4           0  0  0
   -0.5860    0.0000    1.3018 C   0  0  0  0  0  4           0  0  0
    0.1324   -0.5451   -2.4451 C   0  0  0  0  0  4           0  0  0
   -0.7860    1.4458    1.7459 C   0  0  1  0  0  4           0  0  0
   -1.7120    2.2060    0.7811 C   0  0  0  0  0  4           0  0  0
   -1.3343    1.4942    3.1786 C   0  0  0  0  0  4           0  0  0
   -1.9684    3.6365    1.2507 C   0  0  0  0  0  4           0  0  0
   -1.5881    2.9266    3.6415 C   0  0  0  0  0  4           0  0  0
   -2.5036    3.6748    2.6783 C   0  0  0  0  0  4           0  0  0
  1  7  1  0     0  0
  1 11  1  0     0  0
  2  7  2  0     0  0
  2  8  1  0     0  0
  3  8  2  0     0  0
  3  9  1  0     0  0
  4 10  1  0     0  0
  4 12  2  0     0  0
  5  8  1  0     0  0
  6  9  1  0     0  0
  7 10  1  0     0  0
  9 10  2  0     0  0
 11 13  1  0     0  0
 13 14  1  0     0  0
 13 15  1  0     0  0
 14 16  1  0     0  0
 15 17  1  0     0  0
 16 18  1  0     0  0
 17 18  1  0     0  0
M  END
> <Compound >
10

> <standard_type>
pIC50

> <# Confs.>
25

> <canonical_smiles>
NC1=NC(N)=C(N=C)C(OCC2CCCCC2)=N1

> <standard_relation>
=

> <predicted_activity_value>
6.017457417697057

> <actual_activity_value>
5.657577319177793

> <Publication ID>
nan

> <standard_units>
nM

> hash
10067028176825304050

$$$$
10_
XXILIB    08252103513D 0   0.00000     0.00000

 18 19  0     1  0            999 V2000
    0.0000    0.0000    0.0000 O   0  0  0  0  0  2           0  0  0
    2.0548   -0.5872    1.0170 N   0  0  0  0  0  3           0  0  0
    4.0966    0.0497   -0.0257 N   0  0  0  0  0  3           0  0  0
    1.2923    1.2368   -2.1049 N   0  0  0  0  0  3           0  0  0
    4.1124   -1.1510    1.9952 N   0  0  0  0  0  3           0  0  0
    4.1257    1.2431   -2.0636 N   0  0  0  0  0  3           0  0  0
    1.3856    0.0000    0.0000 C   0  0  0  0  0  4           0  0  0
    3.4023   -0.5484    0.9693 C   0  0  0  0  0  4           0  0  0
    3.4070    0.6486   -1.0277 C   0  0  0  0  0  4           0  0  0
    2.0144    0.6232   -1.0704 C   0  0  0  0  0  4           0  0  0
   -0.5860   -0.0000    1.3018 C   0  0  0  0  0  4           0  0  0
    0.1324    0.7505   -2.3900 C   0  0  0  0  0  4           0  0  0
   -1.9277   -0.7229    1.2320 C   0  0  1  0  0  4           0  0  0
   -1.7573   -2.1773    0.7607 C   0  0  0  0  0  4           0  0  0
   -2.6347   -0.6708    2.5931 C   0  0  0  0  0  4           0  0  0
   -3.0873   -2.9281    0.7470 C   0  0  0  0  0  4           0  0  0
   -3.9631   -1.4229    2.5723 C   0  0  0  0  0  4           0  0  0
   -3.7867   -2.8624    2.1007 C   0  0  0  0  0  4           0  0  0
  1  7  1  0     0  0
  1 11  1  0     0  0
  2  7  2  0     0  0
  2  8  1  0     0  0
  3  8  2  0     0  0
  3  9  1  0     0  0
  4 10  1  0     0  0
  4 12  2  0     0  0
  5  8  1  0     0  0
  6  9  1  0     0  0
  7 10  1  0     0  0
  9 10  2  0     0  0
 11 13  1  0     0  0
 13 14  1  0     0  0
 13 15  1  0     0  0
 14 16  1  0     0  0
 15 17  1  0     0  0
 16 18  1  0     0  0
 17 18  1  0     0  0
M  END
> <Compound >
10

> <standard_type>
pIC50

> <# Confs.>
25

> <canonical_smiles>
NC1=NC(N)=C(N=C)C(OCC2CCCCC2)=N1

> <standard_relation>
=

> <predicted_activity_value>
6.017457417697057

> <actual_activity_value>
5.657577319177793

> <Publication ID>
nan

> <standard_units>
nM

> hash
10067028176825304050

$$$$
10_
XXILIB    08252103513D 0   0.00000     0.00000

 18 19  0     1  0            999 V2000
    0.0000    0.0000    0.0000 O   0  0  0  0  0  2           0  0  0
    2.0548   -0.0000    1.1744 N   0  0  0  0  0  3           0  0  0
    4.0966    0.0301   -0.0471 N   0  0  0  0  0  3           0  0  0
    1.2923    0.0187   -2.4413 N   0  0  0  0  0  3           0  0  0
    4.1124    0.0008    2.3034 N   0  0  0  0  0  3           0  0  0
    4.1257    0.0447   -2.4087 N   0  0  0  0  0  3           0  0  0
    1.3856    0.0000    0.0000 C   0  0  0  0  0  4           0  0  0
    3.4023    0.0098    1.1137 C   0  0  0  0  0  4           0  0  0
    3.4070    0.0478   -1.2143 C   0  0  0  0  0  4           0  0  0
    2.0144    0.0045   -1.2386 C   0  0  0  0  0  4           0  0  0
   -0.5860   -0.0000    1.3018 C   0  0  0  0  0  4           0  0  0
    0.1407    0.5993   -2.4366 C   0  0  0  0  0  4           0  0  0
   -1.9277   -0.7229    1.2320 C   0  0  1  0  0  4           0  0  0
   -2.8885   -0.0286    0.2515 C   0  0  0  0  0  4           0  0  0
   -1.7232   -2.1938    0.8444 C   0  0  0  0  0  4           0  0  0
   -4.2123   -0.7802    0.1275 C   0  0  0  0  0  4           0  0  0
   -3.0500   -2.9388    0.7224 C   0  0  0  0  0  4           0  0  0
   -3.9983   -2.2427   -0.2481 C   0  0  0  0  0  4           0  0  0
  1  7  1  0     0  0
  1 11  1  0     0  0
  2  7  2  0     0  0
  2  8  1  0     0  0
  3  8  2  0     0  0
  3  9  1  0     0  0
  4 10  1  0     0  0
  4 12  2  0     0  0
  5  8  1  0     0  0
  6  9  1  0     0  0
  7 10  1  0     0  0
  9 10  2  0     0  0
 11 13  1  0     0  0
 13 14  1  0     0  0
 13 15  1  0     0  0
 14 16  1  0     0  0
 15 17  1  0     0  0
 16 18  1  0     0  0
 17 18  1  0     0  0
M  END
> <Compound >
10

> <standard_type>
pIC50

> <# Confs.>
25

> <canonical_smiles>
NC1=NC(N)=C(N=C)C(OCC2CCCCC2)=N1

> <standard_relation>
=

> <predicted_activity_value>
6.017457417697057

> <actual_activity_value>
5.657577319177793

> <Publication ID>
nan

> <standard_units>
nM

> hash
10067028176825304050

$$$$
10_
XXILIB    08252103513D 0   0.00000     0.00000

 18 19  0     1  0            999 V2000
    0.0000    0.0000    0.0000 O   0  0  0  0  0  2           0  0  0
    2.0548   -0.5872    1.0170 N   0  0  0  0  0  3           0  0  0
    4.0966    0.0497   -0.0257 N   0  0  0  0  0  3           0  0  0
    1.2923    1.2368   -2.1049 N   0  0  0  0  0  3           0  0  0
    4.1124   -1.1510    1.9952 N   0  0  0  0  0  3           0  0  0
    4.1257    1.2431   -2.0636 N   0  0  0  0  0  3           0  0  0
    1.3856    0.0000    0.0000 C   0  0  0  0  0  4           0  0  0
    3.4023   -0.5484    0.9693 C   0  0  0  0  0  4           0  0  0
    3.4070    0.6486   -1.0277 C   0  0  0  0  0  4           0  0  0
    2.0144    0.6232   -1.0704 C   0  0  0  0  0  4           0  0  0
   -0.5860    0.0000    1.3018 C   0  0  0  0  0  4           0  0  0
    0.1324    0.7505   -2.3900 C   0  0  0  0  0  4           0  0  0
   -0.7860   -1.4458    1.7459 C   0  0  1  0  0  4           0  0  0
   -1.4167   -1.5200    3.1470 C   0  0  0  0  0  4           0  0  0
   -1.6408   -2.2062    0.7229 C   0  0  0  0  0  4           0  0  0
   -1.6782   -2.9626    3.5751 C   0  0  0  0  0  4           0  0  0
   -1.8982   -3.6470    1.1569 C   0  0  0  0  0  4           0  0  0
   -2.5199   -3.7126    2.5479 C   0  0  0  0  0  4           0  0  0
  1  7  1  0     0  0
  1 11  1  0     0  0
  2  7  2  0     0  0
  2  8  1  0     0  0
  3  8  2  0     0  0
  3  9  1  0     0  0
  4 10  1  0     0  0
  4 12  2  0     0  0
  5  8  1  0     0  0
  6  9  1  0     0  0
  7 10  1  0     0  0
  9 10  2  0     0  0
 11 13  1  0     0  0
 13 14  1  0     0  0
 13 15  1  0     0  0
 14 16  1  0     0  0
 15 17  1  0     0  0
 16 18  1  0     0  0
 17 18  1  0     0  0
M  END
> <Compound >
10

> <standard_type>
pIC50

> <# Confs.>
25

> <canonical_smiles>
NC1=NC(N)=C(N=C)C(OCC2CCCCC2)=N1

> <standard_relation>
=

> <predicted_activity_value>
6.017457417697057

> <actual_activity_value>
5.657577319177793

> <Publication ID>
nan

> <standard_units>
nM

> hash
10067028176825304050

$$$$
10_
XXILIB    08252103513D 0   0.00000     0.00000

 18 19  0     1  0            999 V2000
    0.0000    0.0000    0.0000 O   0  0  0  0  0  2           0  0  0
    2.0548   -0.5872    1.0170 N   0  0  0  0  0  3           0  0  0
    4.0966    0.0497   -0.0257 N   0  0  0  0  0  3           0  0  0
    1.2923    1.2368   -2.1049 N   0  0  0  0  0  3           0  0  0
    4.1124   -1.1510    1.9952 N   0  0  0  0  0  3           0  0  0
    4.1257    1.2431   -2.0636 N   0  0  0  0  0  3           0  0  0
    1.3856    0.0000    0.0000 C   0  0  0  0  0  4           0  0  0
    3.4023   -0.5484    0.9693 C   0  0  0  0  0  4           0  0  0
    3.4070    0.6486   -1.0277 C   0  0  0  0  0  4           0  0  0
    2.0144    0.6232   -1.0704 C   0  0  0  0  0  4           0  0  0
   -0.5860   -0.0000    1.3018 C   0  0  0  0  0  4           0  0  0
    0.1324    0.7505   -2.3900 C   0  0  0  0  0  4           0  0  0
   -1.9277   -0.7229    1.2320 C   0  0  1  0  0  4           0  0  0
   -2.6170   -0.7600    2.6067 C   0  0  0  0  0  4           0  0  0
   -2.8362   -0.0644    0.1848 C   0  0  0  0  0  4           0  0  0
   -3.9892   -1.4269    2.5348 C   0  0  0  0  0  4           0  0  0
   -4.2056   -0.7357    0.1182 C   0  0  0  0  0  4           0  0  0
   -4.8809   -0.7721    1.4851 C   0  0  0  0  0  4           0  0  0
  1  7  1  0     0  0
  1 11  1  0     0  0
  2  7  2  0     0  0
  2  8  1  0     0  0
  3  8  2  0     0  0
  3  9  1  0     0  0
  4 10  1  0     0  0
  4 12  2  0     0  0
  5  8  1  0     0  0
  6  9  1  0     0  0
  7 10  1  0     0  0
  9 10  2  0     0  0
 11 13  1  0     0  0
 13 14  1  0     0  0
 13 15  1  0     0  0
 14 16  1  0     0  0
 15 17  1  0     0  0
 16 18  1  0     0  0
 17 18  1  0     0  0
M  END
> <Compound >
10

> <standard_type>
pIC50

> <# Confs.>
25

> <canonical_smiles>
NC1=NC(N)=C(N=C)C(OCC2CCCCC2)=N1

> <standard_relation>
=

> <predicted_activity_value>
6.017457417697057

> <actual_activity_value>
5.657577319177793

> <Publication ID>
nan

> <standard_units>
nM

> hash
10067028176825304050

$$$$
10_
XXILIB    08252103513D 0   0.00000     0.00000

 18 19  0     1  0            999 V2000
    0.0000    0.0000   -0.0000 O   0  0  0  0  0  2           0  0  0
    2.0548    0.5872    1.0170 N   0  0  0  0  0  3           0  0  0
    4.0966    0.0025   -0.0559 N   0  0  0  0  0  3           0  0  0
    1.2923   -1.2045   -2.1235 N   0  0  0  0  0  3           0  0  0
    4.1124    1.1524    1.9944 N   0  0  0  0  0  3           0  0  0
    4.1257   -1.1656   -2.1084 N   0  0  0  0  0  3           0  0  0
    1.3856    0.0000    0.0000 C   0  0  0  0  0  4           0  0  0
    3.4023    0.5653    0.9596 C   0  0  0  0  0  4           0  0  0
    3.4070   -0.5657   -1.0755 C   0  0  0  0  0  4           0  0  0
    2.0144   -0.6154   -1.0749 C   0  0  0  0  0  4           0  0  0
   -0.5860    0.0000    1.3018 C   0  0  0  0  0  4           0  0  0
    0.1407   -0.6993   -2.4098 C   0  0  0  0  0  4           0  0  0
   -1.9277    0.7229    1.2320 C   0  0  1  0  0  4           0  0  0
   -2.8885    0.0286    0.2515 C   0  0  0  0  0  4           0  0  0
   -2.5544    0.8234    2.6293 C   0  0  0  0  0  4           0  0  0
   -4.2559    0.7084    0.2210 C   0  0  0  0  0  4           0  0  0
   -3.9205    1.5037    2.5915 C   0  0  0  0  0  4           0  0  0
   -4.8660    0.8124    1.6148 C   0  0  0  0  0  4           0  0  0
  1  7  1  0     0  0
  1 11  1  0     0  0
  2  7  2  0     0  0
  2  8  1  0     0  0
  3  8  2  0     0  0
  3  9  1  0     0  0
  4 10  1  0     0  0
  4 12  2  0     0  0
  5  8  1  0     0  0
  6  9  1  0     0  0
  7 10  1  0     0  0
  9 10  2  0     0  0
 11 13  1  0     0  0
 13 14  1  0     0  0
 13 15  1  0     0  0
 14 16  1  0     0  0
 15 17  1  0     0  0
 16 18  1  0     0  0
 17 18  1  0     0  0
M  END
> <Compound >
10

> <standard_type>
pIC50

> <# Confs.>
25

> <canonical_smiles>
NC1=NC(N)=C(N=C)C(OCC2CCCCC2)=N1

> <standard_relation>
=

> <predicted_activity_value>
6.017457417697057

> <actual_activity_value>
5.657577319177793

> <Publication ID>
nan

> <standard_units>
nM

> hash
10067028176825304050

$$$$
10_
XXILIB    08252103513D 0   0.00000     0.00000

 18 19  0     1  0            999 V2000
    0.0000    0.0000   -0.0000 O   0  0  0  0  0  2           0  0  0
    2.0548   -1.0170    0.5872 N   0  0  0  0  0  3           0  0  0
    4.0966    0.0559    0.0025 N   0  0  0  0  0  3           0  0  0
    1.2923    2.1235   -1.2045 N   0  0  0  0  0  3           0  0  0
    4.1124   -1.9944    1.1524 N   0  0  0  0  0  3           0  0  0
    4.1257    2.1084   -1.1656 N   0  0  0  0  0  3           0  0  0
    1.3856    0.0000    0.0000 C   0  0  0  0  0  4           0  0  0
    3.4023   -0.9596    0.5653 C   0  0  0  0  0  4           0  0  0
    3.4070    1.0755   -0.5657 C   0  0  0  0  0  4           0  0  0
    2.0144    1.0749   -0.6154 C   0  0  0  0  0  4           0  0  0
   -0.5860    0.0000    1.3018 C   0  0  0  0  0  4           0  0  0
    0.1324    1.8450   -1.6946 C   0  0  0  0  0  4           0  0  0
   -1.9277    0.7229    1.2320 C   0  0  1  0  0  4           0  0  0
   -2.8885    0.0286    0.2515 C   0  0  0  0  0  4           0  0  0
   -2.5544    0.8234    2.6293 C   0  0  0  0  0  4           0  0  0
   -4.2559    0.7084    0.2210 C   0  0  0  0  0  4           0  0  0
   -3.9205    1.5037    2.5915 C   0  0  0  0  0  4           0  0  0
   -4.8660    0.8124    1.6148 C   0  0  0  0  0  4           0  0  0
  1  7  1  0     0  0
  1 11  1  0     0  0
  2  7  2  0     0  0
  2  8  1  0     0  0
  3  8  2  0     0  0
  3  9  1  0     0  0
  4 10  1  0     0  0
  4 12  2  0     0  0
  5  8  1  0     0  0
  6  9  1  0     0  0
  7 10  1  0     0  0
  9 10  2  0     0  0
 11 13  1  0     0  0
 13 14  1  0     0  0
 13 15  1  0     0  0
 14 16  1  0     0  0
 15 17  1  0     0  0
 16 18  1  0     0  0
 17 18  1  0     0  0
M  END
> <Compound >
10

> <standard_type>
pIC50

> <# Confs.>
25

> <canonical_smiles>
NC1=NC(N)=C(N=C)C(OCC2CCCCC2)=N1

> <standard_relation>
=

> <predicted_activity_value>
6.017457417697057

> <actual_activity_value>
5.657577319177793

> <Publication ID>
nan

> <standard_units>
nM

> hash
10067028176825304050

$$$$
10_
XXILIB    08252103513D 0   0.00000     0.00000

 18 19  0     1  0            999 V2000
    0.0000    0.0000   -0.0000 O   0  0  0  0  0  2           0  0  0
    2.0548   -0.5872    1.0170 N   0  0  0  0  0  3           0  0  0
    4.0966    0.0497   -0.0257 N   0  0  0  0  0  3           0  0  0
    1.2923    1.2368   -2.1049 N   0  0  0  0  0  3           0  0  0
    4.1124   -1.1510    1.9952 N   0  0  0  0  0  3           0  0  0
    4.1257    1.2431   -2.0636 N   0  0  0  0  0  3           0  0  0
    1.3856    0.0000    0.0000 C   0  0  0  0  0  4           0  0  0
    3.4023   -0.5484    0.9693 C   0  0  0  0  0  4           0  0  0
    3.4070    0.6486   -1.0277 C   0  0  0  0  0  4           0  0  0
    2.0144    0.6232   -1.0704 C   0  0  0  0  0  4           0  0  0
   -0.5860   -0.0000    1.3018 C   0  0  0  0  0  4           0  0  0
    0.1324    0.7505   -2.3900 C   0  0  0  0  0  4           0  0  0
   -1.4452    1.2521    1.4492 C   0  0  1  0  0  4           0  0  0
   -2.5663    1.2901    0.3965 C   0  0  0  0  0  4           0  0  0
   -2.0263    1.3381    2.8670 C   0  0  0  0  0  4           0  0  0
   -3.4698    2.5085    0.5748 C   0  0  0  0  0  4           0  0  0
   -2.9281    2.5579    3.0382 C   0  0  0  0  0  4           0  0  0
   -4.0345    2.5907    1.9891 C   0  0  0  0  0  4           0  0  0
  1  7  1  0     0  0
  1 11  1  0     0  0
  2  7  2  0     0  0
  2  8  1  0     0  0
  3  8  2  0     0  0
  3  9  1  0     0  0
  4 10  1  0     0  0
  4 12  2  0     0  0
  5  8  1  0     0  0
  6  9  1  0     0  0
  7 10  1  0     0  0
  9 10  2  0     0  0
 11 13  1  0     0  0
 13 14  1  0     0  0
 13 15  1  0     0  0
 14 16  1  0     0  0
 15 17  1  0     0  0
 16 18  1  0     0  0
 17 18  1  0     0  0
M  END
> <Compound >
10

> <standard_type>
pIC50

> <# Confs.>
25

> <canonical_smiles>
NC1=NC(N)=C(N=C)C(OCC2CCCCC2)=N1

> <standard_relation>
=

> <predicted_activity_value>
6.017457417697057

> <actual_activity_value>
5.657577319177793

> <Publication ID>
nan

> <standard_units>
nM

> hash
10067028176825304050

$$$$
10_
XXILIB    08252103513D 0   0.00000     0.00000

 18 19  0     1  0            999 V2000
    0.0000    0.0000   -0.0000 O   0  0  0  0  0  2           0  0  0
    2.0548    0.5872    1.0170 N   0  0  0  0  0  3           0  0  0
    4.0966    0.0025   -0.0559 N   0  0  0  0  0  3           0  0  0
    1.2923   -1.2045   -2.1235 N   0  0  0  0  0  3           0  0  0
    4.1124    1.1524    1.9944 N   0  0  0  0  0  3           0  0  0
    4.1257   -1.1656   -2.1084 N   0  0  0  0  0  3           0  0  0
    1.3856    0.0000    0.0000 C   0  0  0  0  0  4           0  0  0
    3.4023    0.5653    0.9596 C   0  0  0  0  0  4           0  0  0
    3.4070   -0.5657   -1.0755 C   0  0  0  0  0  4           0  0  0
    2.0144   -0.6154   -1.0749 C   0  0  0  0  0  4           0  0  0
   -0.5860    0.0000    1.3018 C   0  0  0  0  0  4           0  0  0
    0.1407   -0.6993   -2.4098 C   0  0  0  0  0  4           0  0  0
   -1.9277    0.7229    1.2320 C   0  0  1  0  0  4           0  0  0
   -2.6170    0.7600    2.6067 C   0  0  0  0  0  4           0  0  0
   -1.7424    2.1418    0.6772 C   0  0  0  0  0  4           0  0  0
   -3.9319    1.5357    2.5606 C   0  0  0  0  0  4           0  0  0
   -3.0602    2.9113    0.6338 C   0  0  0  0  0  4           0  0  0
   -3.7393    2.9405    1.9990 C   0  0  0  0  0  4           0  0  0
  1  7  1  0     0  0
  1 11  1  0     0  0
  2  7  2  0     0  0
  2  8  1  0     0  0
  3  8  2  0     0  0
  3  9  1  0     0  0
  4 10  1  0     0  0
  4 12  2  0     0  0
  5  8  1  0     0  0
  6  9  1  0     0  0
  7 10  1  0     0  0
  9 10  2  0     0  0
 11 13  1  0     0  0
 13 14  1  0     0  0
 13 15  1  0     0  0
 14 16  1  0     0  0
 15 17  1  0     0  0
 16 18  1  0     0  0
 17 18  1  0     0  0
M  END
> <Compound >
10

> <standard_type>
pIC50

> <# Confs.>
25

> <canonical_smiles>
NC1=NC(N)=C(N=C)C(OCC2CCCCC2)=N1

> <standard_relation>
=

> <predicted_activity_value>
6.017457417697057

> <actual_activity_value>
5.657577319177793

> <Publication ID>
nan

> <standard_units>
nM

> hash
10067028176825304050

$$$$
10_
XXILIB    08252103513D 0   0.00000     0.00000

 18 19  0     1  0            999 V2000
    0.0000    0.0000   -0.0000 O   0  0  0  0  0  2           0  0  0
    2.0548    0.5872    1.0170 N   0  0  0  0  0  3           0  0  0
    4.0966    0.0025   -0.0559 N   0  0  0  0  0  3           0  0  0
    1.2923   -1.2045   -2.1235 N   0  0  0  0  0  3           0  0  0
    4.1124    1.1524    1.9944 N   0  0  0  0  0  3           0  0  0
    4.1257   -1.1656   -2.1084 N   0  0  0  0  0  3           0  0  0
    1.3856    0.0000    0.0000 C   0  0  0  0  0  4           0  0  0
    3.4023    0.5653    0.9596 C   0  0  0  0  0  4           0  0  0
    3.4070   -0.5657   -1.0755 C   0  0  0  0  0  4           0  0  0
    2.0144   -0.6154   -1.0749 C   0  0  0  0  0  4           0  0  0
   -0.5860    0.0000    1.3018 C   0  0  0  0  0  4           0  0  0
    0.1407   -0.6993   -2.4098 C   0  0  0  0  0  4           0  0  0
   -1.9277    0.7229    1.2320 C   0  0  1  0  0  4           0  0  0
   -1.7573    2.1773    0.7607 C   0  0  0  0  0  4           0  0  0
   -2.8972   -0.0363    0.3159 C   0  0  0  0  0  4           0  0  0
   -3.1010    2.8910    0.6278 C   0  0  0  0  0  4           0  0  0
   -4.2379    0.6824    0.1877 C   0  0  0  0  0  4           0  0  0
   -4.0607    2.1243   -0.2762 C   0  0  0  0  0  4           0  0  0
  1  7  1  0     0  0
  1 11  1  0     0  0
  2  7  2  0     0  0
  2  8  1  0     0  0
  3  8  2  0     0  0
  3  9  1  0     0  0
  4 10  1  0     0  0
  4 12  2  0     0  0
  5  8  1  0     0  0
  6  9  1  0     0  0
  7 10  1  0     0  0
  9 10  2  0     0  0
 11 13  1  0     0  0
 13 14  1  0     0  0
 13 15  1  0     0  0
 14 16  1  0     0  0
 15 17  1  0     0  0
 16 18  1  0     0  0
 17 18  1  0     0  0
M  END
> <Compound >
10

> <standard_type>
pIC50

> <# Confs.>
25

> <canonical_smiles>
NC1=NC(N)=C(N=C)C(OCC2CCCCC2)=N1

> <standard_relation>
=

> <predicted_activity_value>
6.017457417697057

> <actual_activity_value>
5.657577319177793

> <Publication ID>
nan

> <standard_units>
nM

> hash
10067028176825304050

$$$$
10_
XXILIB    08252103513D 0   0.00000     0.00000

 18 19  0     1  0            999 V2000
    0.0000    0.0000   -0.0000 O   0  0  0  0  0  2           0  0  0
    2.0548   -0.5872    1.0170 N   0  0  0  0  0  3           0  0  0
    4.0966    0.0497   -0.0257 N   0  0  0  0  0  3           0  0  0
    1.2923    1.2368   -2.1049 N   0  0  0  0  0  3           0  0  0
    4.1124   -1.1510    1.9952 N   0  0  0  0  0  3           0  0  0
    4.1257    1.2431   -2.0636 N   0  0  0  0  0  3           0  0  0
    1.3856    0.0000    0.0000 C   0  0  0  0  0  4           0  0  0
    3.4023   -0.5484    0.9693 C   0  0  0  0  0  4           0  0  0
    3.4070    0.6486   -1.0277 C   0  0  0  0  0  4           0  0  0
    2.0144    0.6232   -1.0704 C   0  0  0  0  0  4           0  0  0
   -0.5860   -0.0000    1.3018 C   0  0  0  0  0  4           0  0  0
    0.1324    0.7505   -2.3900 C   0  0  0  0  0  4           0  0  0
   -1.4452    1.2521    1.4492 C   0  0  1  0  0  4           0  0  0
   -0.6070    2.5307    1.2785 C   0  0  0  0  0  4           0  0  0
   -2.6069    1.2247    0.4466 C   0  0  0  0  0  4           0  0  0
   -1.4689    3.7887    1.3625 C   0  0  0  0  0  4           0  0  0
   -3.4641    2.4847    0.5360 C   0  0  0  0  0  4           0  0  0
   -2.6259    3.7478    0.3697 C   0  0  0  0  0  4           0  0  0
  1  7  1  0     0  0
  1 11  1  0     0  0
  2  7  2  0     0  0
  2  8  1  0     0  0
  3  8  2  0     0  0
  3  9  1  0     0  0
  4 10  1  0     0  0
  4 12  2  0     0  0
  5  8  1  0     0  0
  6  9  1  0     0  0
  7 10  1  0     0  0
  9 10  2  0     0  0
 11 13  1  0     0  0
 13 14  1  0     0  0
 13 15  1  0     0  0
 14 16  1  0     0  0
 15 17  1  0     0  0
 16 18  1  0     0  0
 17 18  1  0     0  0
M  END
> <Compound >
10

> <standard_type>
pIC50

> <# Confs.>
25

> <canonical_smiles>
NC1=NC(N)=C(N=C)C(OCC2CCCCC2)=N1

> <standard_relation>
=

> <predicted_activity_value>
6.017457417697057

> <actual_activity_value>
5.657577319177793

> <Publication ID>
nan

> <standard_units>
nM

> hash
10067028176825304050

$$$$
10_
XXILIB    08252103513D 0   0.00000     0.00000

 18 19  0     1  0            999 V2000
    0.0000    0.0000   -0.0000 O   0  0  0  0  0  2           0  0  0
    2.0548   -0.5872    1.0170 N   0  0  0  0  0  3           0  0  0
    4.0966    0.0497   -0.0257 N   0  0  0  0  0  3           0  0  0
    1.2923    1.2368   -2.1049 N   0  0  0  0  0  3           0  0  0
    4.1124   -1.1510    1.9952 N   0  0  0  0  0  3           0  0  0
    4.1257    1.2431   -2.0636 N   0  0  0  0  0  3           0  0  0
    1.3856    0.0000    0.0000 C   0  0  0  0  0  4           0  0  0
    3.4023   -0.5484    0.9693 C   0  0  0  0  0  4           0  0  0
    3.4070    0.6486   -1.0277 C   0  0  0  0  0  4           0  0  0
    2.0144    0.6232   -1.0704 C   0  0  0  0  0  4           0  0  0
   -0.5860    0.0000    1.3018 C   0  0  0  0  0  4           0  0  0
    0.1324    0.7505   -2.3900 C   0  0  0  0  0  4           0  0  0
   -1.9277    0.7229    1.2320 C   0  0  1  0  0  4           0  0  0
   -2.6485    0.7806    2.5897 C   0  0  0  0  0  4           0  0  0
   -2.8500    0.1701    0.1318 C   0  0  0  0  0  4           0  0  0
   -3.4072   -0.4919    2.9579 C   0  0  0  0  0  4           0  0  0
   -3.6075   -1.0975    0.5188 C   0  0  0  0  0  4           0  0  0
   -4.3454   -0.9336    1.8416 C   0  0  0  0  0  4           0  0  0
  1  7  1  0     0  0
  1 11  1  0     0  0
  2  7  2  0     0  0
  2  8  1  0     0  0
  3  8  2  0     0  0
  3  9  1  0     0  0
  4 10  1  0     0  0
  4 12  2  0     0  0
  5  8  1  0     0  0
  6  9  1  0     0  0
  7 10  1  0     0  0
  9 10  2  0     0  0
 11 13  1  0     0  0
 13 14  1  0     0  0
 13 15  1  0     0  0
 14 16  1  0     0  0
 15 17  1  0     0  0
 16 18  1  0     0  0
 17 18  1  0     0  0
M  END
> <Compound >
10

> <standard_type>
pIC50

> <# Confs.>
25

> <canonical_smiles>
NC1=NC(N)=C(N=C)C(OCC2CCCCC2)=N1

> <standard_relation>
=

> <predicted_activity_value>
6.017457417697057

> <actual_activity_value>
5.657577319177793

> <Publication ID>
nan

> <standard_units>
nM

> hash
10067028176825304050

$$$$
10_
XXILIB    08252103513D 0   0.00000     0.00000

 18 19  0     1  0            999 V2000
    0.0000    0.0000    0.0000 O   0  0  0  0  0  2           0  0  0
    2.0548    0.5872    1.0170 N   0  0  0  0  0  3           0  0  0
    4.0966    0.0025   -0.0559 N   0  0  0  0  0  3           0  0  0
    1.2923   -1.2045   -2.1235 N   0  0  0  0  0  3           0  0  0
    4.1124    1.1524    1.9944 N   0  0  0  0  0  3           0  0  0
    4.1257   -1.1656   -2.1084 N   0  0  0  0  0  3           0  0  0
    1.3856    0.0000    0.0000 C   0  0  0  0  0  4           0  0  0
    3.4023    0.5653    0.9596 C   0  0  0  0  0  4           0  0  0
    3.4070   -0.5657   -1.0755 C   0  0  0  0  0  4           0  0  0
    2.0144   -0.6154   -1.0749 C   0  0  0  0  0  4           0  0  0
   -0.5860    0.0000    1.3018 C   0  0  0  0  0  4           0  0  0
    0.1407   -0.6993   -2.4098 C   0  0  0  0  0  4           0  0  0
   -0.7860   -1.4458    1.7459 C   0  0  1  0  0  4           0  0  0
   -1.4167   -1.5200    3.1470 C   0  0  0  0  0  4           0  0  0
   -1.6408   -2.2062    0.7229 C   0  0  0  0  0  4           0  0  0
   -1.6782   -2.9626    3.5751 C   0  0  0  0  0  4           0  0  0
   -1.8982   -3.6470    1.1569 C   0  0  0  0  0  4           0  0  0
   -2.5199   -3.7126    2.5479 C   0  0  0  0  0  4           0  0  0
  1  7  1  0     0  0
  1 11  1  0     0  0
  2  7  2  0     0  0
  2  8  1  0     0  0
  3  8  2  0     0  0
  3  9  1  0     0  0
  4 10  1  0     0  0
  4 12  2  0     0  0
  5  8  1  0     0  0
  6  9  1  0     0  0
  7 10  1  0     0  0
  9 10  2  0     0  0
 11 13  1  0     0  0
 13 14  1  0     0  0
 13 15  1  0     0  0
 14 16  1  0     0  0
 15 17  1  0     0  0
 16 18  1  0     0  0
 17 18  1  0     0  0
M  END
> <Compound >
10

> <standard_type>
pIC50

> <# Confs.>
25

> <canonical_smiles>
NC1=NC(N)=C(N=C)C(OCC2CCCCC2)=N1

> <standard_relation>
=

> <predicted_activity_value>
6.017457417697057

> <actual_activity_value>
5.657577319177793

> <Publication ID>
nan

> <standard_units>
nM

> hash
10067028176825304050

$$$$
10_
XXILIB    08252103513D 0   0.00000     0.00000

 18 19  0     1  0            999 V2000
    0.0000    0.0000    0.0000 O   0  0  0  0  0  2           0  0  0
    2.0548    0.5872    1.0170 N   0  0  0  0  0  3           0  0  0
    4.0966    0.0025   -0.0559 N   0  0  0  0  0  3           0  0  0
    1.2923   -1.2045   -2.1235 N   0  0  0  0  0  3           0  0  0
    4.1124    1.1524    1.9944 N   0  0  0  0  0  3           0  0  0
    4.1257   -1.1656   -2.1084 N   0  0  0  0  0  3           0  0  0
    1.3856    0.0000    0.0000 C   0  0  0  0  0  4           0  0  0
    3.4023    0.5653    0.9596 C   0  0  0  0  0  4           0  0  0
    3.4070   -0.5657   -1.0755 C   0  0  0  0  0  4           0  0  0
    2.0144   -0.6154   -1.0749 C   0  0  0  0  0  4           0  0  0
   -0.5860   -0.0000    1.3018 C   0  0  0  0  0  4           0  0  0
    0.1407   -0.6993   -2.4098 C   0  0  0  0  0  4           0  0  0
   -1.9277   -0.7229    1.2320 C   0  0  1  0  0  4           0  0  0
   -2.9170   -0.0572    0.2601 C   0  0  0  0  0  4           0  0  0
   -2.5637   -0.9414    2.6155 C   0  0  0  0  0  4           0  0  0
   -3.6520    1.1513    0.8345 C   0  0  0  0  0  4           0  0  0
   -3.3017    0.2737    3.1718 C   0  0  0  0  0  4           0  0  0
   -4.3073    0.8310    2.1721 C   0  0  0  0  0  4           0  0  0
  1  7  1  0     0  0
  1 11  1  0     0  0
  2  7  2  0     0  0
  2  8  1  0     0  0
  3  8  2  0     0  0
  3  9  1  0     0  0
  4 10  1  0     0  0
  4 12  2  0     0  0
  5  8  1  0     0  0
  6  9  1  0     0  0
  7 10  1  0     0  0
  9 10  2  0     0  0
 11 13  1  0     0  0
 13 14  1  0     0  0
 13 15  1  0     0  0
 14 16  1  0     0  0
 15 17  1  0     0  0
 16 18  1  0     0  0
 17 18  1  0     0  0
M  END
> <Compound >
10

> <standard_type>
pIC50

> <# Confs.>
25

> <canonical_smiles>
NC1=NC(N)=C(N=C)C(OCC2CCCCC2)=N1

> <standard_relation>
=

> <predicted_activity_value>
6.017457417697057

> <actual_activity_value>
5.657577319177793

> <Publication ID>
nan

> <standard_units>
nM

> hash
10067028176825304050

$$$$
10_
XXILIB    08252103513D 0   0.00000     0.00000

 18 19  0     1  0            999 V2000
    0.0000    0.0000   -0.0000 O   0  0  0  0  0  2           0  0  0
    2.0548   -0.5872    1.0170 N   0  0  0  0  0  3           0  0  0
    4.0966    0.0497   -0.0257 N   0  0  0  0  0  3           0  0  0
    1.2923    1.2368   -2.1049 N   0  0  0  0  0  3           0  0  0
    4.1124   -1.1510    1.9952 N   0  0  0  0  0  3           0  0  0
    4.1257    1.2431   -2.0636 N   0  0  0  0  0  3           0  0  0
    1.3856    0.0000    0.0000 C   0  0  0  0  0  4           0  0  0
    3.4023   -0.5484    0.9693 C   0  0  0  0  0  4           0  0  0
    3.4070    0.6486   -1.0277 C   0  0  0  0  0  4           0  0  0
    2.0144    0.6232   -1.0704 C   0  0  0  0  0  4           0  0  0
   -0.5860   -0.0000    1.3018 C   0  0  0  0  0  4           0  0  0
    0.1324    0.7505   -2.3900 C   0  0  0  0  0  4           0  0  0
   -1.4452    1.2521    1.4492 C   0  0  1  0  0  4           0  0  0
   -2.1097    1.3163    2.8351 C   0  0  0  0  0  4           0  0  0
   -0.6058    2.5103    1.1889 C   0  0  0  0  0  4           0  0  0
   -2.9221    2.5971    3.0151 C   0  0  0  0  0  4           0  0  0
   -1.4238    3.7864    1.3705 C   0  0  0  0  0  4           0  0  0
   -2.0824    3.8411    2.7449 C   0  0  0  0  0  4           0  0  0
  1  7  1  0     0  0
  1 11  1  0     0  0
  2  7  2  0     0  0
  2  8  1  0     0  0
  3  8  2  0     0  0
  3  9  1  0     0  0
  4 10  1  0     0  0
  4 12  2  0     0  0
  5  8  1  0     0  0
  6  9  1  0     0  0
  7 10  1  0     0  0
  9 10  2  0     0  0
 11 13  1  0     0  0
 13 14  1  0     0  0
 13 15  1  0     0  0
 14 16  1  0     0  0
 15 17  1  0     0  0
 16 18  1  0     0  0
 17 18  1  0     0  0
M  END
> <Compound >
10

> <standard_type>
pIC50

> <# Confs.>
25

> <canonical_smiles>
NC1=NC(N)=C(N=C)C(OCC2CCCCC2)=N1

> <standard_relation>
=

> <predicted_activity_value>
6.017457417697057

> <actual_activity_value>
5.657577319177793

> <Publication ID>
nan

> <standard_units>
nM

> hash
10067028176825304050

$$$$
10_
XXILIB    08252103513D 0   0.00000     0.00000

 18 19  0     1  0            999 V2000
    0.0000    0.0000    0.0000 O   0  0  0  0  0  2           0  0  0
    2.0548    0.5872    1.0170 N   0  0  0  0  0  3           0  0  0
    4.0966    0.0025   -0.0559 N   0  0  0  0  0  3           0  0  0
    1.2923   -1.2045   -2.1235 N   0  0  0  0  0  3           0  0  0
    4.1124    1.1524    1.9944 N   0  0  0  0  0  3           0  0  0
    4.1257   -1.1656   -2.1084 N   0  0  0  0  0  3           0  0  0
    1.3856    0.0000    0.0000 C   0  0  0  0  0  4           0  0  0
    3.4023    0.5653    0.9596 C   0  0  0  0  0  4           0  0  0
    3.4070   -0.5657   -1.0755 C   0  0  0  0  0  4           0  0  0
    2.0144   -0.6154   -1.0749 C   0  0  0  0  0  4           0  0  0
   -0.5860    0.0000    1.3018 C   0  0  0  0  0  4           0  0  0
    0.1407   -0.6993   -2.4098 C   0  0  0  0  0  4           0  0  0
   -1.4452   -1.2521    1.4492 C   0  0  1  0  0  4           0  0  0
   -0.6070   -2.5307    1.2785 C   0  0  0  0  0  4           0  0  0
   -2.1654   -1.2500    2.8044 C   0  0  0  0  0  4           0  0  0
   -1.4458   -3.7901    1.4860 C   0  0  0  0  0  4           0  0  0
   -3.0018   -2.5112    3.0050 C   0  0  0  0  0  4           0  0  0
   -2.1652   -3.7742    2.8306 C   0  0  0  0  0  4           0  0  0
  1  7  1  0     0  0
  1 11  1  0     0  0
  2  7  2  0     0  0
  2  8  1  0     0  0
  3  8  2  0     0  0
  3  9  1  0     0  0
  4 10  1  0     0  0
  4 12  2  0     0  0
  5  8  1  0     0  0
  6  9  1  0     0  0
  7 10  1  0     0  0
  9 10  2  0     0  0
 11 13  1  0     0  0
 13 14  1  0     0  0
 13 15  1  0     0  0
 14 16  1  0     0  0
 15 17  1  0     0  0
 16 18  1  0     0  0
 17 18  1  0     0  0
M  END
> <Compound >
10

> <standard_type>
pIC50

> <# Confs.>
25

> <canonical_smiles>
NC1=NC(N)=C(N=C)C(OCC2CCCCC2)=N1

> <standard_relation>
=

> <predicted_activity_value>
6.017457417697057

> <actual_activity_value>
5.657577319177793

> <Publication ID>
nan

> <standard_units>
nM

> hash
10067028176825304050

$$$$
10_
XXILIB    08252103513D 0   0.00000     0.00000

 18 19  0     1  0            999 V2000
    0.0000    0.0000    0.0000 O   0  0  0  0  0  2           0  0  0
    2.0548   -0.5872    1.0170 N   0  0  0  0  0  3           0  0  0
    4.0966    0.0497   -0.0257 N   0  0  0  0  0  3           0  0  0
    1.2923    1.2368   -2.1049 N   0  0  0  0  0  3           0  0  0
    4.1124   -1.1510    1.9952 N   0  0  0  0  0  3           0  0  0
    4.1257    1.2431   -2.0636 N   0  0  0  0  0  3           0  0  0
    1.3856    0.0000    0.0000 C   0  0  0  0  0  4           0  0  0
    3.4023   -0.5484    0.9693 C   0  0  0  0  0  4           0  0  0
    3.4070    0.6486   -1.0277 C   0  0  0  0  0  4           0  0  0
    2.0144    0.6232   -1.0704 C   0  0  0  0  0  4           0  0  0
   -0.5860   -0.0000    1.3018 C   0  0  0  0  0  4           0  0  0
    0.1324    0.7505   -2.3900 C   0  0  0  0  0  4           0  0  0
   -1.9277   -0.7229    1.2320 C   0  0  1  0  0  4           0  0  0
   -2.6400   -0.7748    2.5954 C   0  0  0  0  0  4           0  0  0
   -1.7736   -2.1373    0.6530 C   0  0  0  0  0  4           0  0  0
   -1.9855   -1.7497    3.5731 C   0  0  0  0  0  4           0  0  0
   -1.1135   -3.1103    1.6283 C   0  0  0  0  0  4           0  0  0
   -1.8417   -3.1430    2.9682 C   0  0  0  0  0  4           0  0  0
  1  7  1  0     0  0
  1 11  1  0     0  0
  2  7  2  0     0  0
  2  8  1  0     0  0
  3  8  2  0     0  0
  3  9  1  0     0  0
  4 10  1  0     0  0
  4 12  2  0     0  0
  5  8  1  0     0  0
  6  9  1  0     0  0
  7 10  1  0     0  0
  9 10  2  0     0  0
 11 13  1  0     0  0
 13 14  1  0     0  0
 13 15  1  0     0  0
 14 16  1  0     0  0
 15 17  1  0     0  0
 16 18  1  0     0  0
 17 18  1  0     0  0
M  END
> <Compound >
10

> <standard_type>
pIC50

> <# Confs.>
25

> <canonical_smiles>
NC1=NC(N)=C(N=C)C(OCC2CCCCC2)=N1

> <standard_relation>
=

> <predicted_activity_value>
6.017457417697057

> <actual_activity_value>
5.657577319177793

> <Publication ID>
nan

> <standard_units>
nM

> hash
10067028176825304050

$$$$
10_
XXILIB    08252103513D 0   0.00000     0.00000

 18 19  0     1  0            999 V2000
    0.0000    0.0000    0.0000 O   0  0  0  0  0  2           0  0  0
    2.0548   -0.5872    1.0170 N   0  0  0  0  0  3           0  0  0
    4.0966    0.0497   -0.0257 N   0  0  0  0  0  3           0  0  0
    1.2923    1.2368   -2.1049 N   0  0  0  0  0  3           0  0  0
    4.1124   -1.1510    1.9952 N   0  0  0  0  0  3           0  0  0
    4.1257    1.2431   -2.0636 N   0  0  0  0  0  3           0  0  0
    1.3856    0.0000    0.0000 C   0  0  0  0  0  4           0  0  0
    3.4023   -0.5484    0.9693 C   0  0  0  0  0  4           0  0  0
    3.4070    0.6486   -1.0277 C   0  0  0  0  0  4           0  0  0
    2.0144    0.6232   -1.0704 C   0  0  0  0  0  4           0  0  0
   -0.5860    0.0000    1.3018 C   0  0  0  0  0  4           0  0  0
    0.1324    0.7505   -2.3900 C   0  0  0  0  0  4           0  0  0
   -1.4452   -1.2521    1.4492 C   0  0  1  0  0  4           0  0  0
   -2.5663   -1.2901    0.3965 C   0  0  0  0  0  4           0  0  0
   -0.5733   -2.5122    1.3621 C   0  0  0  0  0  4           0  0  0
   -3.3937   -2.5700    0.4960 C   0  0  0  0  0  4           0  0  0
   -1.4066   -3.7874    1.4622 C   0  0  0  0  0  4           0  0  0
   -2.5179   -3.8161    0.4183 C   0  0  0  0  0  4           0  0  0
  1  7  1  0     0  0
  1 11  1  0     0  0
  2  7  2  0     0  0
  2  8  1  0     0  0
  3  8  2  0     0  0
  3  9  1  0     0  0
  4 10  1  0     0  0
  4 12  2  0     0  0
  5  8  1  0     0  0
  6  9  1  0     0  0
  7 10  1  0     0  0
  9 10  2  0     0  0
 11 13  1  0     0  0
 13 14  1  0     0  0
 13 15  1  0     0  0
 14 16  1  0     0  0
 15 17  1  0     0  0
 16 18  1  0     0  0
 17 18  1  0     0  0
M  END
> <Compound >
10

> <standard_type>
pIC50

> <# Confs.>
25

> <canonical_smiles>
NC1=NC(N)=C(N=C)C(OCC2CCCCC2)=N1

> <standard_relation>
=

> <predicted_activity_value>
6.017457417697057

> <actual_activity_value>
5.657577319177793

> <Publication ID>
nan

> <standard_units>
nM

> hash
10067028176825304050

$$$$
10_
XXILIB    08252103513D 0   0.00000     0.00000

 18 19  0     1  0            999 V2000
    0.0000    0.0000    0.0000 O   0  0  0  0  0  2           0  0  0
    2.0548    1.0170    0.5872 N   0  0  0  0  0  3           0  0  0
    4.0966   -0.0257   -0.0497 N   0  0  0  0  0  3           0  0  0
    1.2923   -2.1049   -1.2368 N   0  0  0  0  0  3           0  0  0
    4.1124    1.9952    1.1510 N   0  0  0  0  0  3           0  0  0
    4.1257   -2.0636   -1.2431 N   0  0  0  0  0  3           0  0  0
    1.3856    0.0000    0.0000 C   0  0  0  0  0  4           0  0  0
    3.4023    0.9693    0.5484 C   0  0  0  0  0  4           0  0  0
    3.4070   -1.0277   -0.6486 C   0  0  0  0  0  4           0  0  0
    2.0144   -1.0704   -0.6232 C   0  0  0  0  0  4           0  0  0
   -0.5860   -0.0000    1.3018 C   0  0  0  0  0  4           0  0  0
    0.1407   -1.8105   -1.7373 C   0  0  0  0  0  4           0  0  0
   -1.9277   -0.7229    1.2320 C   0  0  1  0  0  4           0  0  0
   -2.6170   -0.7600    2.6067 C   0  0  0  0  0  4           0  0  0
   -2.8362   -0.0644    0.1848 C   0  0  0  0  0  4           0  0  0
   -3.9892   -1.4269    2.5348 C   0  0  0  0  0  4           0  0  0
   -4.2056   -0.7357    0.1182 C   0  0  0  0  0  4           0  0  0
   -4.8809   -0.7721    1.4851 C   0  0  0  0  0  4           0  0  0
  1  7  1  0     0  0
  1 11  1  0     0  0
  2  7  2  0     0  0
  2  8  1  0     0  0
  3  8  2  0     0  0
  3  9  1  0     0  0
  4 10  1  0     0  0
  4 12  2  0     0  0
  5  8  1  0     0  0
  6  9  1  0     0  0
  7 10  1  0     0  0
  9 10  2  0     0  0
 11 13  1  0     0  0
 13 14  1  0     0  0
 13 15  1  0     0  0
 14 16  1  0     0  0
 15 17  1  0     0  0
 16 18  1  0     0  0
 17 18  1  0     0  0
M  END
> <Compound >
10

> <standard_type>
pIC50

> <# Confs.>
25

> <canonical_smiles>
NC1=NC(N)=C(N=C)C(OCC2CCCCC2)=N1

> <standard_relation>
=

> <predicted_activity_value>
6.017457417697057

> <actual_activity_value>
5.657577319177793

> <Publication ID>
nan

> <standard_units>
nM

> hash
10067028176825304050

$$$$
10_
XXILIB    08252103513D 0   0.00000     0.00000

 18 19  0     1  0            999 V2000
    0.0000    0.0000    0.0000 O   0  0  0  0  0  2           0  0  0
    2.0548   -0.0000    1.1744 N   0  0  0  0  0  3           0  0  0
    4.0966    0.0301   -0.0471 N   0  0  0  0  0  3           0  0  0
    1.2923    0.0187   -2.4413 N   0  0  0  0  0  3           0  0  0
    4.1124    0.0008    2.3034 N   0  0  0  0  0  3           0  0  0
    4.1257    0.0447   -2.4087 N   0  0  0  0  0  3           0  0  0
    1.3856    0.0000    0.0000 C   0  0  0  0  0  4           0  0  0
    3.4023    0.0098    1.1137 C   0  0  0  0  0  4           0  0  0
    3.4070    0.0478   -1.2143 C   0  0  0  0  0  4           0  0  0
    2.0144    0.0045   -1.2386 C   0  0  0  0  0  4           0  0  0
   -0.5860    0.0000    1.3018 C   0  0  0  0  0  4           0  0  0
    0.1324   -0.5451   -2.4451 C   0  0  0  0  0  4           0  0  0
   -0.7860    1.4458    1.7459 C   0  0  1  0  0  4           0  0  0
   -1.4163    1.5495    3.1462 C   0  0  0  0  0  4           0  0  0
   -1.6160    2.2371    0.7240 C   0  0  0  0  0  4           0  0  0
   -2.8970    1.1726    3.1627 C   0  0  0  0  0  4           0  0  0
   -3.0951    1.8557    0.7363 C   0  0  0  0  0  4           0  0  0
   -3.6932    1.9707    2.1348 C   0  0  0  0  0  4           0  0  0
  1  7  1  0     0  0
  1 11  1  0     0  0
  2  7  2  0     0  0
  2  8  1  0     0  0
  3  8  2  0     0  0
  3  9  1  0     0  0
  4 10  1  0     0  0
  4 12  2  0     0  0
  5  8  1  0     0  0
  6  9  1  0     0  0
  7 10  1  0     0  0
  9 10  2  0     0  0
 11 13  1  0     0  0
 13 14  1  0     0  0
 13 15  1  0     0  0
 14 16  1  0     0  0
 15 17  1  0     0  0
 16 18  1  0     0  0
 17 18  1  0     0  0
M  END
> <Compound >
10

> <standard_type>
pIC50

> <# Confs.>
25

> <canonical_smiles>
NC1=NC(N)=C(N=C)C(OCC2CCCCC2)=N1

> <standard_relation>
=

> <predicted_activity_value>
6.017457417697057

> <actual_activity_value>
5.657577319177793

> <Publication ID>
nan

> <standard_units>
nM

> hash
10067028176825304050

$$$$
13_
XXILIB    08252103513D 0   0.00000     0.00000

 25 27  0     1  0            999 V2000
   -2.7769   -0.0048    2.2750 O   0  0  0  0  0  2           0  0  0
   -0.6705    0.0000    1.1754 N   0  0  0  0  0  3           0  0  0
   -0.6200    0.0012   -1.2057 N   0  0  0  0  0  3           0  0  0
    1.4051   -0.0000    0.0000 N   0  0  0  0  0  3           0  0  0
   -2.6269   -0.0209   -2.4687 N   0  0  0  0  0  3           0  0  0
    4.9257    2.1997    5.8002 N   0  0  0  0  0  3           0  0  0
   -2.0194   -0.0013    1.1133 C   0  0  0  0  0  4           0  0  0
    0.0000    0.0000    0.0000 C   0  0  0  0  0  4           0  0  0
   -1.9747    0.0163   -1.2390 C   0  0  0  0  0  4           0  0  0
    2.3181   -0.0000    1.0579 C   0  0  0  0  0  4           0  0  0
    4.2257    0.0431    3.1523 C   0  0  0  0  0  4           0  0  0
   -2.7226    0.0009   -0.0738 C   0  0  0  0  0  4           0  0  0
    2.0382   -0.5903    2.2986 C   0  0  0  0  0  4           0  0  0
    3.5682    0.6135    0.8856 C   0  0  0  0  0  4           0  0  0
    2.9788   -0.5666    3.3342 C   0  0  0  0  0  4           0  0  0
    4.5100    0.6376    1.9183 C   0  0  0  0  0  4           0  0  0
   -2.0309   -0.0068    3.4933 C   0  0  0  0  0  4           0  0  0
    5.0560    1.2674    5.1214 C   0  0  0  0  0  4           0  0  0
    5.2253    0.0885    4.2711 C   0  0  0  0  0  4           0  0  0
   -3.0071   -0.0105    4.6669 C   0  0  2  0  0  4           0  0  0
   -3.9184    1.2273    4.6453 C   0  0  0  0  0  4           0  0  0
   -2.2705   -0.1035    6.0129 C   0  0  0  0  0  4           0  0  0
   -4.8979    1.2221    5.8177 C   0  0  0  0  0  4           0  0  0
   -3.2481   -0.1103    7.1869 C   0  0  0  0  0  4           0  0  0
   -4.1717    1.1038    7.1545 C   0  0  0  0  0  4           0  0  0
  1  7  1  0     0  0
  1 17  1  0     0  0
  2  7  2  0     0  0
  2  8  1  0     0  0
  3  8  2  0     0  0
  3  9  1  0     0  0
  4  8  1  0     0  0
  4 10  1  0     0  0
  5  9  1  0     0  0
  6 18  3  0     0  0
  7 12  1  0     0  0
  9 12  2  0     0  0
 10 13  2  0     0  0
 10 14  1  0     0  0
 11 15  2  0     0  0
 11 16  1  0     0  0
 11 19  1  0     0  0
 13 15  1  0     0  0
 14 16  2  0     0  0
 17 20  1  0     0  0
 18 19  1  0     0  0
 20 21  1  0     0  0
 20 22  1  0     0  0
 21 23  1  0     0  0
 22 24  1  0     0  0
 23 25  1  0     0  0
 24 25  1  0     0  0
M  END
> <Compound >
13

> <standard_type>
pIC50

> <# Confs.>
25

> <canonical_smiles>
NC1=CC(OCC2CCCCC2)=NC(NC3=CC=C(CC#N)C=C3)=N1

> <standard_relation>
=

> <predicted_activity_value>
4.517134988077452

> <actual_activity_value>
4.619788758288394

> <Publication ID>
nan

> <standard_units>
nM

> hash
5259875804365495897

$$$$
13_
XXILIB    08252103513D 0   0.00000     0.00000

 25 27  0     1  0            999 V2000
   -2.7769   -0.0048    2.2750 O   0  0  0  0  0  2           0  0  0
   -0.6705    0.0000    1.1754 N   0  0  0  0  0  3           0  0  0
   -0.6200    0.0012   -1.2057 N   0  0  0  0  0  3           0  0  0
    1.4051   -0.0000    0.0000 N   0  0  0  0  0  3           0  0  0
   -2.6269   -0.0209   -2.4687 N   0  0  0  0  0  3           0  0  0
    6.8621   -1.9621    4.2388 N   0  0  0  0  0  3           0  0  0
   -2.0194   -0.0013    1.1133 C   0  0  0  0  0  4           0  0  0
    0.0000    0.0000    0.0000 C   0  0  0  0  0  4           0  0  0
   -1.9747    0.0163   -1.2390 C   0  0  0  0  0  4           0  0  0
    2.3181   -0.0000    1.0579 C   0  0  0  0  0  4           0  0  0
    4.2257    0.0431    3.1523 C   0  0  0  0  0  4           0  0  0
   -2.7226    0.0009   -0.0738 C   0  0  0  0  0  4           0  0  0
    2.0382   -0.5903    2.2986 C   0  0  0  0  0  4           0  0  0
    3.5682    0.6135    0.8856 C   0  0  0  0  0  4           0  0  0
    2.9788   -0.5666    3.3342 C   0  0  0  0  0  4           0  0  0
    4.5100    0.6376    1.9183 C   0  0  0  0  0  4           0  0  0
   -2.0309   -0.0068    3.4933 C   0  0  0  0  0  4           0  0  0
    6.1360   -1.0568    4.2506 C   0  0  0  0  0  4           0  0  0
    5.2253    0.0885    4.2711 C   0  0  0  0  0  4           0  0  0
   -3.0071   -0.0105    4.6669 C   0  0  2  0  0  4           0  0  0
   -3.9184    1.2273    4.6453 C   0  0  0  0  0  4           0  0  0
   -2.2705   -0.1035    6.0129 C   0  0  0  0  0  4           0  0  0
   -4.8979    1.2221    5.8177 C   0  0  0  0  0  4           0  0  0
   -3.2481   -0.1103    7.1869 C   0  0  0  0  0  4           0  0  0
   -4.1717    1.1038    7.1545 C   0  0  0  0  0  4           0  0  0
  1  7  1  0     0  0
  1 17  1  0     0  0
  2  7  2  0     0  0
  2  8  1  0     0  0
  3  8  2  0     0  0
  3  9  1  0     0  0
  4  8  1  0     0  0
  4 10  1  0     0  0
  5  9  1  0     0  0
  6 18  3  0     0  0
  7 12  1  0     0  0
  9 12  2  0     0  0
 10 13  2  0     0  0
 10 14  1  0     0  0
 11 15  2  0     0  0
 11 16  1  0     0  0
 11 19  1  0     0  0
 13 15  1  0     0  0
 14 16  2  0     0  0
 17 20  1  0     0  0
 18 19  1  0     0  0
 20 21  1  0     0  0
 20 22  1  0     0  0
 21 23  1  0     0  0
 22 24  1  0     0  0
 23 25  1  0     0  0
 24 25  1  0     0  0
M  END
> <Compound >
13

> <standard_type>
pIC50

> <# Confs.>
25

> <canonical_smiles>
NC1=CC(OCC2CCCCC2)=NC(NC3=CC=C(CC#N)C=C3)=N1

> <standard_relation>
=

> <predicted_activity_value>
4.517134988077452

> <actual_activity_value>
4.619788758288394

> <Publication ID>
nan

> <standard_units>
nM

> hash
5259875804365495897

$$$$
13_
XXILIB    08252103513D 0   0.00000     0.00000

 25 27  0     1  0            999 V2000
   -2.7769   -0.0048    2.2750 O   0  0  0  0  0  2           0  0  0
   -0.6705    0.0000    1.1754 N   0  0  0  0  0  3           0  0  0
   -0.6200    0.0012   -1.2057 N   0  0  0  0  0  3           0  0  0
    1.4051    0.0000   -0.0000 N   0  0  0  0  0  3           0  0  0
   -2.6269   -0.0209   -2.4687 N   0  0  0  0  0  3           0  0  0
    6.7934    2.0733    4.1885 N   0  0  0  0  0  3           0  0  0
   -2.0194   -0.0013    1.1133 C   0  0  0  0  0  4           0  0  0
    0.0000    0.0000    0.0000 C   0  0  0  0  0  4           0  0  0
   -1.9747    0.0163   -1.2390 C   0  0  0  0  0  4           0  0  0
    2.3181    0.0000    1.0579 C   0  0  0  0  0  4           0  0  0
    4.2252   -0.0442    3.1527 C   0  0  0  0  0  4           0  0  0
   -2.7226    0.0009   -0.0738 C   0  0  0  0  0  4           0  0  0
    2.0382    0.5903    2.2986 C   0  0  0  0  0  4           0  0  0
    3.5695   -0.6104    0.8844 C   0  0  0  0  0  4           0  0  0
    2.9809    0.5713    3.3324 C   0  0  0  0  0  4           0  0  0
    4.5126   -0.6316    1.9160 C   0  0  0  0  0  4           0  0  0
   -2.0309   -0.0068    3.4933 C   0  0  0  0  0  4           0  0  0
    6.1072    1.1377    4.2143 C   0  0  0  0  0  4           0  0  0
    5.2448   -0.0439    4.2543 C   0  0  0  0  0  4           0  0  0
   -3.0071   -0.0105    4.6669 C   0  0  2  0  0  4           0  0  0
   -3.9184    1.2273    4.6453 C   0  0  0  0  0  4           0  0  0
   -2.2705   -0.1035    6.0129 C   0  0  0  0  0  4           0  0  0
   -4.8979    1.2221    5.8177 C   0  0  0  0  0  4           0  0  0
   -3.2481   -0.1103    7.1869 C   0  0  0  0  0  4           0  0  0
   -4.1717    1.1038    7.1545 C   0  0  0  0  0  4           0  0  0
  1  7  1  0     0  0
  1 17  1  0     0  0
  2  7  2  0     0  0
  2  8  1  0     0  0
  3  8  2  0     0  0
  3  9  1  0     0  0
  4  8  1  0     0  0
  4 10  1  0     0  0
  5  9  1  0     0  0
  6 18  3  0     0  0
  7 12  1  0     0  0
  9 12  2  0     0  0
 10 13  2  0     0  0
 10 14  1  0     0  0
 11 15  2  0     0  0
 11 16  1  0     0  0
 11 19  1  0     0  0
 13 15  1  0     0  0
 14 16  2  0     0  0
 17 20  1  0     0  0
 18 19  1  0     0  0
 20 21  1  0     0  0
 20 22  1  0     0  0
 21 23  1  0     0  0
 22 24  1  0     0  0
 23 25  1  0     0  0
 24 25  1  0     0  0
M  END
> <Compound >
13

> <standard_type>
pIC50

> <# Confs.>
25

> <canonical_smiles>
NC1=CC(OCC2CCCCC2)=NC(NC3=CC=C(CC#N)C=C3)=N1

> <standard_relation>
=

> <predicted_activity_value>
4.517134988077452

> <actual_activity_value>
4.619788758288394

> <Publication ID>
nan

> <standard_units>
nM

> hash
5259875804365495897

$$$$
13_
XXILIB    08252103513D 0   0.00000     0.00000

 25 27  0     1  0            999 V2000
   -2.7769   -0.0048    2.2750 O   0  0  0  0  0  2           0  0  0
   -0.6705    0.0000    1.1754 N   0  0  0  0  0  3           0  0  0
   -0.6200    0.0012   -1.2057 N   0  0  0  0  0  3           0  0  0
    1.4051   -0.0000    0.0000 N   0  0  0  0  0  3           0  0  0
   -2.6269   -0.0209   -2.4687 N   0  0  0  0  0  3           0  0  0
    4.9257    2.1997    5.8002 N   0  0  0  0  0  3           0  0  0
   -2.0194   -0.0013    1.1133 C   0  0  0  0  0  4           0  0  0
    0.0000    0.0000    0.0000 C   0  0  0  0  0  4           0  0  0
   -1.9747    0.0163   -1.2390 C   0  0  0  0  0  4           0  0  0
    2.3181   -0.0000    1.0579 C   0  0  0  0  0  4           0  0  0
    4.2257    0.0431    3.1523 C   0  0  0  0  0  4           0  0  0
   -2.7226    0.0009   -0.0738 C   0  0  0  0  0  4           0  0  0
    2.0382   -0.5903    2.2986 C   0  0  0  0  0  4           0  0  0
    3.5682    0.6135    0.8856 C   0  0  0  0  0  4           0  0  0
    2.9788   -0.5666    3.3342 C   0  0  0  0  0  4           0  0  0
    4.5100    0.6376    1.9183 C   0  0  0  0  0  4           0  0  0
   -2.0309   -0.0068    3.4933 C   0  0  0  0  0  4           0  0  0
    5.0560    1.2674    5.1214 C   0  0  0  0  0  4           0  0  0
    5.2253    0.0885    4.2711 C   0  0  0  0  0  4           0  0  0
   -3.0071   -0.0105    4.6669 C   0  0  2  0  0  4           0  0  0
   -2.2676   -0.0128    6.0146 C   0  0  0  0  0  4           0  0  0
   -3.9755   -1.2020    4.5911 C   0  0  0  0  0  4           0  0  0
   -3.2443   -0.0130    7.1893 C   0  0  0  0  0  4           0  0  0
   -4.9542   -1.2034    5.7642 C   0  0  0  0  0  4           0  0  0
   -4.2239   -1.1797    7.1038 C   0  0  0  0  0  4           0  0  0
  1  7  1  0     0  0
  1 17  1  0     0  0
  2  7  2  0     0  0
  2  8  1  0     0  0
  3  8  2  0     0  0
  3  9  1  0     0  0
  4  8  1  0     0  0
  4 10  1  0     0  0
  5  9  1  0     0  0
  6 18  3  0     0  0
  7 12  1  0     0  0
  9 12  2  0     0  0
 10 13  2  0     0  0
 10 14  1  0     0  0
 11 15  2  0     0  0
 11 16  1  0     0  0
 11 19  1  0     0  0
 13 15  1  0     0  0
 14 16  2  0     0  0
 17 20  1  0     0  0
 18 19  1  0     0  0
 20 21  1  0     0  0
 20 22  1  0     0  0
 21 23  1  0     0  0
 22 24  1  0     0  0
 23 25  1  0     0  0
 24 25  1  0     0  0
M  END
> <Compound >
13

> <standard_type>
pIC50

> <# Confs.>
25

> <canonical_smiles>
NC1=CC(OCC2CCCCC2)=NC(NC3=CC=C(CC#N)C=C3)=N1

> <standard_relation>
=

> <predicted_activity_value>
4.517134988077452

> <actual_activity_value>
4.619788758288394

> <Publication ID>
nan

> <standard_units>
nM

> hash
5259875804365495897

$$$$
13_
XXILIB    08252103513D 0   0.00000     0.00000

 25 27  0     1  0            999 V2000
   -2.7769   -0.0048    2.2750 O   0  0  0  0  0  2           0  0  0
   -0.6705    0.0000    1.1754 N   0  0  0  0  0  3           0  0  0
   -0.6200    0.0012   -1.2057 N   0  0  0  0  0  3           0  0  0
    1.4051   -0.0000    0.0000 N   0  0  0  0  0  3           0  0  0
   -2.6269   -0.0209   -2.4687 N   0  0  0  0  0  3           0  0  0
    6.8621   -1.9621    4.2388 N   0  0  0  0  0  3           0  0  0
   -2.0194   -0.0013    1.1133 C   0  0  0  0  0  4           0  0  0
    0.0000    0.0000    0.0000 C   0  0  0  0  0  4           0  0  0
   -1.9747    0.0163   -1.2390 C   0  0  0  0  0  4           0  0  0
    2.3181   -0.0000    1.0579 C   0  0  0  0  0  4           0  0  0
    4.2257    0.0431    3.1523 C   0  0  0  0  0  4           0  0  0
   -2.7226    0.0009   -0.0738 C   0  0  0  0  0  4           0  0  0
    2.0382   -0.5903    2.2986 C   0  0  0  0  0  4           0  0  0
    3.5682    0.6135    0.8856 C   0  0  0  0  0  4           0  0  0
    2.9788   -0.5666    3.3342 C   0  0  0  0  0  4           0  0  0
    4.5100    0.6376    1.9183 C   0  0  0  0  0  4           0  0  0
   -2.0309   -0.0068    3.4933 C   0  0  0  0  0  4           0  0  0
    6.1360   -1.0568    4.2506 C   0  0  0  0  0  4           0  0  0
    5.2253    0.0885    4.2711 C   0  0  0  0  0  4           0  0  0
   -3.0071   -0.0105    4.6669 C   0  0  2  0  0  4           0  0  0
   -2.2676   -0.0128    6.0146 C   0  0  0  0  0  4           0  0  0
   -3.9755   -1.2020    4.5911 C   0  0  0  0  0  4           0  0  0
   -3.2443   -0.0130    7.1893 C   0  0  0  0  0  4           0  0  0
   -4.9542   -1.2034    5.7642 C   0  0  0  0  0  4           0  0  0
   -4.2239   -1.1797    7.1038 C   0  0  0  0  0  4           0  0  0
  1  7  1  0     0  0
  1 17  1  0     0  0
  2  7  2  0     0  0
  2  8  1  0     0  0
  3  8  2  0     0  0
  3  9  1  0     0  0
  4  8  1  0     0  0
  4 10  1  0     0  0
  5  9  1  0     0  0
  6 18  3  0     0  0
  7 12  1  0     0  0
  9 12  2  0     0  0
 10 13  2  0     0  0
 10 14  1  0     0  0
 11 15  2  0     0  0
 11 16  1  0     0  0
 11 19  1  0     0  0
 13 15  1  0     0  0
 14 16  2  0     0  0
 17 20  1  0     0  0
 18 19  1  0     0  0
 20 21  1  0     0  0
 20 22  1  0     0  0
 21 23  1  0     0  0
 22 24  1  0     0  0
 23 25  1  0     0  0
 24 25  1  0     0  0
M  END
> <Compound >
13

> <standard_type>
pIC50

> <# Confs.>
25

> <canonical_smiles>
NC1=CC(OCC2CCCCC2)=NC(NC3=CC=C(CC#N)C=C3)=N1

> <standard_relation>
=

> <predicted_activity_value>
4.517134988077452

> <actual_activity_value>
4.619788758288394

> <Publication ID>
nan

> <standard_units>
nM

> hash
5259875804365495897

$$$$
13_
XXILIB    08252103513D 0   0.00000     0.00000

 25 27  0     1  0            999 V2000
   -2.7769   -0.0048    2.2750 O   0  0  0  0  0  2           0  0  0
   -0.6705    0.0000    1.1754 N   0  0  0  0  0  3           0  0  0
   -0.6200    0.0012   -1.2057 N   0  0  0  0  0  3           0  0  0
    1.4051    0.0000   -0.0000 N   0  0  0  0  0  3           0  0  0
   -2.6269   -0.0209   -2.4687 N   0  0  0  0  0  3           0  0  0
    6.7934    2.0733    4.1885 N   0  0  0  0  0  3           0  0  0
   -2.0194   -0.0013    1.1133 C   0  0  0  0  0  4           0  0  0
    0.0000    0.0000    0.0000 C   0  0  0  0  0  4           0  0  0
   -1.9747    0.0163   -1.2390 C   0  0  0  0  0  4           0  0  0
    2.3181    0.0000    1.0579 C   0  0  0  0  0  4           0  0  0
    4.2252   -0.0442    3.1527 C   0  0  0  0  0  4           0  0  0
   -2.7226    0.0009   -0.0738 C   0  0  0  0  0  4           0  0  0
    2.0382    0.5903    2.2986 C   0  0  0  0  0  4           0  0  0
    3.5695   -0.6104    0.8844 C   0  0  0  0  0  4           0  0  0
    2.9809    0.5713    3.3324 C   0  0  0  0  0  4           0  0  0
    4.5126   -0.6316    1.9160 C   0  0  0  0  0  4           0  0  0
   -2.0309   -0.0068    3.4933 C   0  0  0  0  0  4           0  0  0
    6.1072    1.1377    4.2143 C   0  0  0  0  0  4           0  0  0
    5.2448   -0.0439    4.2543 C   0  0  0  0  0  4           0  0  0
   -3.0071   -0.0105    4.6669 C   0  0  2  0  0  4           0  0  0
   -2.2676   -0.0128    6.0146 C   0  0  0  0  0  4           0  0  0
   -3.9755   -1.2020    4.5911 C   0  0  0  0  0  4           0  0  0
   -3.2443   -0.0130    7.1893 C   0  0  0  0  0  4           0  0  0
   -4.9542   -1.2034    5.7642 C   0  0  0  0  0  4           0  0  0
   -4.2239   -1.1797    7.1038 C   0  0  0  0  0  4           0  0  0
  1  7  1  0     0  0
  1 17  1  0     0  0
  2  7  2  0     0  0
  2  8  1  0     0  0
  3  8  2  0     0  0
  3  9  1  0     0  0
  4  8  1  0     0  0
  4 10  1  0     0  0
  5  9  1  0     0  0
  6 18  3  0     0  0
  7 12  1  0     0  0
  9 12  2  0     0  0
 10 13  2  0     0  0
 10 14  1  0     0  0
 11 15  2  0     0  0
 11 16  1  0     0  0
 11 19  1  0     0  0
 13 15  1  0     0  0
 14 16  2  0     0  0
 17 20  1  0     0  0
 18 19  1  0     0  0
 20 21  1  0     0  0
 20 22  1  0     0  0
 21 23  1  0     0  0
 22 24  1  0     0  0
 23 25  1  0     0  0
 24 25  1  0     0  0
M  END
> <Compound >
13

> <standard_type>
pIC50

> <# Confs.>
25

> <canonical_smiles>
NC1=CC(OCC2CCCCC2)=NC(NC3=CC=C(CC#N)C=C3)=N1

> <standard_relation>
=

> <predicted_activity_value>
4.517134988077452

> <actual_activity_value>
4.619788758288394

> <Publication ID>
nan

> <standard_units>
nM

> hash
5259875804365495897

$$$$
13_
XXILIB    08252103513D 0   0.00000     0.00000

 25 27  0     1  0            999 V2000
   -2.7769   -0.0048    2.2750 O   0  0  0  0  0  2           0  0  0
   -0.6705    0.0000    1.1754 N   0  0  0  0  0  3           0  0  0
   -0.6200    0.0012   -1.2057 N   0  0  0  0  0  3           0  0  0
    1.4051   -0.0000    0.0000 N   0  0  0  0  0  3           0  0  0
   -2.6269   -0.0209   -2.4687 N   0  0  0  0  0  3           0  0  0
    4.9257    2.1997    5.8002 N   0  0  0  0  0  3           0  0  0
   -2.0194   -0.0013    1.1133 C   0  0  0  0  0  4           0  0  0
    0.0000    0.0000    0.0000 C   0  0  0  0  0  4           0  0  0
   -1.9747    0.0163   -1.2390 C   0  0  0  0  0  4           0  0  0
    2.3181   -0.0000    1.0579 C   0  0  0  0  0  4           0  0  0
    4.2257    0.0431    3.1523 C   0  0  0  0  0  4           0  0  0
   -2.7226    0.0009   -0.0738 C   0  0  0  0  0  4           0  0  0
    2.0382   -0.5903    2.2986 C   0  0  0  0  0  4           0  0  0
    3.5682    0.6135    0.8856 C   0  0  0  0  0  4           0  0  0
    2.9788   -0.5666    3.3342 C   0  0  0  0  0  4           0  0  0
    4.5100    0.6376    1.9183 C   0  0  0  0  0  4           0  0  0
   -2.0309   -0.0068    3.4933 C   0  0  0  0  0  4           0  0  0
    5.0560    1.2674    5.1214 C   0  0  0  0  0  4           0  0  0
    5.2253    0.0885    4.2711 C   0  0  0  0  0  4           0  0  0
   -3.0071   -0.0105    4.6669 C   0  0  2  0  0  4           0  0  0
   -3.9158   -1.2502    4.6396 C   0  0  0  0  0  4           0  0  0
   -3.8573    1.2698    4.6973 C   0  0  0  0  0  4           0  0  0
   -4.8905   -1.2560    5.8160 C   0  0  0  0  0  4           0  0  0
   -4.8320    1.2669    5.8738 C   0  0  0  0  0  4           0  0  0
   -5.7183    0.0249    5.8646 C   0  0  0  0  0  4           0  0  0
  1  7  1  0     0  0
  1 17  1  0     0  0
  2  7  2  0     0  0
  2  8  1  0     0  0
  3  8  2  0     0  0
  3  9  1  0     0  0
  4  8  1  0     0  0
  4 10  1  0     0  0
  5  9  1  0     0  0
  6 18  3  0     0  0
  7 12  1  0     0  0
  9 12  2  0     0  0
 10 13  2  0     0  0
 10 14  1  0     0  0
 11 15  2  0     0  0
 11 16  1  0     0  0
 11 19  1  0     0  0
 13 15  1  0     0  0
 14 16  2  0     0  0
 17 20  1  0     0  0
 18 19  1  0     0  0
 20 21  1  0     0  0
 20 22  1  0     0  0
 21 23  1  0     0  0
 22 24  1  0     0  0
 23 25  1  0     0  0
 24 25  1  0     0  0
M  END
> <Compound >
13

> <standard_type>
pIC50

> <# Confs.>
25

> <canonical_smiles>
NC1=CC(OCC2CCCCC2)=NC(NC3=CC=C(CC#N)C=C3)=N1

> <standard_relation>
=

> <predicted_activity_value>
4.517134988077452

> <actual_activity_value>
4.619788758288394

> <Publication ID>
nan

> <standard_units>
nM

> hash
5259875804365495897

$$$$
13_
XXILIB    08252103513D 0   0.00000     0.00000

 25 27  0     1  0            999 V2000
   -2.7769   -0.0048    2.2750 O   0  0  0  0  0  2           0  0  0
   -0.6705    0.0000    1.1754 N   0  0  0  0  0  3           0  0  0
   -0.6200    0.0012   -1.2057 N   0  0  0  0  0  3           0  0  0
    1.4051   -0.0000    0.0000 N   0  0  0  0  0  3           0  0  0
   -2.6269   -0.0209   -2.4687 N   0  0  0  0  0  3           0  0  0
    6.8621   -1.9621    4.2388 N   0  0  0  0  0  3           0  0  0
   -2.0194   -0.0013    1.1133 C   0  0  0  0  0  4           0  0  0
    0.0000    0.0000    0.0000 C   0  0  0  0  0  4           0  0  0
   -1.9747    0.0163   -1.2390 C   0  0  0  0  0  4           0  0  0
    2.3181   -0.0000    1.0579 C   0  0  0  0  0  4           0  0  0
    4.2257    0.0431    3.1523 C   0  0  0  0  0  4           0  0  0
   -2.7226    0.0009   -0.0738 C   0  0  0  0  0  4           0  0  0
    2.0382   -0.5903    2.2986 C   0  0  0  0  0  4           0  0  0
    3.5682    0.6135    0.8856 C   0  0  0  0  0  4           0  0  0
    2.9788   -0.5666    3.3342 C   0  0  0  0  0  4           0  0  0
    4.5100    0.6376    1.9183 C   0  0  0  0  0  4           0  0  0
   -2.0309   -0.0068    3.4933 C   0  0  0  0  0  4           0  0  0
    6.1360   -1.0568    4.2506 C   0  0  0  0  0  4           0  0  0
    5.2253    0.0885    4.2711 C   0  0  0  0  0  4           0  0  0
   -3.0071   -0.0105    4.6669 C   0  0  2  0  0  4           0  0  0
   -3.9158   -1.2502    4.6396 C   0  0  0  0  0  4           0  0  0
   -3.8573    1.2698    4.6973 C   0  0  0  0  0  4           0  0  0
   -4.8905   -1.2560    5.8160 C   0  0  0  0  0  4           0  0  0
   -4.8320    1.2669    5.8738 C   0  0  0  0  0  4           0  0  0
   -5.7183    0.0249    5.8646 C   0  0  0  0  0  4           0  0  0
  1  7  1  0     0  0
  1 17  1  0     0  0
  2  7  2  0     0  0
  2  8  1  0     0  0
  3  8  2  0     0  0
  3  9  1  0     0  0
  4  8  1  0     0  0
  4 10  1  0     0  0
  5  9  1  0     0  0
  6 18  3  0     0  0
  7 12  1  0     0  0
  9 12  2  0     0  0
 10 13  2  0     0  0
 10 14  1  0     0  0
 11 15  2  0     0  0
 11 16  1  0     0  0
 11 19  1  0     0  0
 13 15  1  0     0  0
 14 16  2  0     0  0
 17 20  1  0     0  0
 18 19  1  0     0  0
 20 21  1  0     0  0
 20 22  1  0     0  0
 21 23  1  0     0  0
 22 24  1  0     0  0
 23 25  1  0     0  0
 24 25  1  0     0  0
M  END
> <Compound >
13

> <standard_type>
pIC50

> <# Confs.>
25

> <canonical_smiles>
NC1=CC(OCC2CCCCC2)=NC(NC3=CC=C(CC#N)C=C3)=N1

> <standard_relation>
=

> <predicted_activity_value>
4.517134988077452

> <actual_activity_value>
4.619788758288394

> <Publication ID>
nan

> <standard_units>
nM

> hash
5259875804365495897

$$$$
13_
XXILIB    08252103513D 0   0.00000     0.00000

 25 27  0     1  0            999 V2000
   -2.7769   -0.0048    2.2750 O   0  0  0  0  0  2           0  0  0
   -0.6705    0.0000    1.1754 N   0  0  0  0  0  3           0  0  0
   -0.6200    0.0012   -1.2057 N   0  0  0  0  0  3           0  0  0
    1.4051    0.0000   -0.0000 N   0  0  0  0  0  3           0  0  0
   -2.6269   -0.0209   -2.4687 N   0  0  0  0  0  3           0  0  0
    5.0601   -2.1607    5.7938 N   0  0  0  0  0  3           0  0  0
   -2.0194   -0.0013    1.1133 C   0  0  0  0  0  4           0  0  0
    0.0000    0.0000    0.0000 C   0  0  0  0  0  4           0  0  0
   -1.9747    0.0163   -1.2390 C   0  0  0  0  0  4           0  0  0
    2.3181    0.0000    1.0579 C   0  0  0  0  0  4           0  0  0
    4.2252   -0.0442    3.1527 C   0  0  0  0  0  4           0  0  0
   -2.7226    0.0009   -0.0738 C   0  0  0  0  0  4           0  0  0
    2.0382    0.5903    2.2986 C   0  0  0  0  0  4           0  0  0
    3.5695   -0.6104    0.8844 C   0  0  0  0  0  4           0  0  0
    2.9809    0.5713    3.3324 C   0  0  0  0  0  4           0  0  0
    4.5126   -0.6316    1.9160 C   0  0  0  0  0  4           0  0  0
   -2.0309   -0.0068    3.4933 C   0  0  0  0  0  4           0  0  0
    5.1385   -1.2252    5.1114 C   0  0  0  0  0  4           0  0  0
    5.2448   -0.0439    4.2543 C   0  0  0  0  0  4           0  0  0
   -3.0071   -0.0105    4.6669 C   0  0  2  0  0  4           0  0  0
   -3.9184    1.2273    4.6453 C   0  0  0  0  0  4           0  0  0
   -2.2705   -0.1035    6.0129 C   0  0  0  0  0  4           0  0  0
   -4.8979    1.2221    5.8177 C   0  0  0  0  0  4           0  0  0
   -3.2481   -0.1103    7.1869 C   0  0  0  0  0  4           0  0  0
   -4.1717    1.1038    7.1545 C   0  0  0  0  0  4           0  0  0
  1  7  1  0     0  0
  1 17  1  0     0  0
  2  7  2  0     0  0
  2  8  1  0     0  0
  3  8  2  0     0  0
  3  9  1  0     0  0
  4  8  1  0     0  0
  4 10  1  0     0  0
  5  9  1  0     0  0
  6 18  3  0     0  0
  7 12  1  0     0  0
  9 12  2  0     0  0
 10 13  2  0     0  0
 10 14  1  0     0  0
 11 15  2  0     0  0
 11 16  1  0     0  0
 11 19  1  0     0  0
 13 15  1  0     0  0
 14 16  2  0     0  0
 17 20  1  0     0  0
 18 19  1  0     0  0
 20 21  1  0     0  0
 20 22  1  0     0  0
 21 23  1  0     0  0
 22 24  1  0     0  0
 23 25  1  0     0  0
 24 25  1  0     0  0
M  END
> <Compound >
13

> <standard_type>
pIC50

> <# Confs.>
25

> <canonical_smiles>
NC1=CC(OCC2CCCCC2)=NC(NC3=CC=C(CC#N)C=C3)=N1

> <standard_relation>
=

> <predicted_activity_value>
4.517134988077452

> <actual_activity_value>
4.619788758288394

> <Publication ID>
nan

> <standard_units>
nM

> hash
5259875804365495897

$$$$
13_
XXILIB    08252103513D 0   0.00000     0.00000

 25 27  0     1  0            999 V2000
   -2.7769   -0.0048    2.2750 O   0  0  0  0  0  2           0  0  0
   -0.6705    0.0000    1.1754 N   0  0  0  0  0  3           0  0  0
   -0.6200    0.0012   -1.2057 N   0  0  0  0  0  3           0  0  0
    1.4051    0.0000   -0.0000 N   0  0  0  0  0  3           0  0  0
   -2.6269   -0.0209   -2.4687 N   0  0  0  0  0  3           0  0  0
    6.7934    2.0733    4.1885 N   0  0  0  0  0  3           0  0  0
   -2.0194   -0.0013    1.1133 C   0  0  0  0  0  4           0  0  0
    0.0000    0.0000    0.0000 C   0  0  0  0  0  4           0  0  0
   -1.9747    0.0163   -1.2390 C   0  0  0  0  0  4           0  0  0
    2.3181    0.0000    1.0579 C   0  0  0  0  0  4           0  0  0
    4.2252   -0.0442    3.1527 C   0  0  0  0  0  4           0  0  0
   -2.7226    0.0009   -0.0738 C   0  0  0  0  0  4           0  0  0
    2.0382    0.5903    2.2986 C   0  0  0  0  0  4           0  0  0
    3.5695   -0.6104    0.8844 C   0  0  0  0  0  4           0  0  0
    2.9809    0.5713    3.3324 C   0  0  0  0  0  4           0  0  0
    4.5126   -0.6316    1.9160 C   0  0  0  0  0  4           0  0  0
   -2.0309   -0.0068    3.4933 C   0  0  0  0  0  4           0  0  0
    6.1072    1.1377    4.2143 C   0  0  0  0  0  4           0  0  0
    5.2448   -0.0439    4.2543 C   0  0  0  0  0  4           0  0  0
   -3.0071   -0.0105    4.6669 C   0  0  2  0  0  4           0  0  0
   -3.9158   -1.2502    4.6396 C   0  0  0  0  0  4           0  0  0
   -3.8573    1.2698    4.6973 C   0  0  0  0  0  4           0  0  0
   -4.8905   -1.2560    5.8160 C   0  0  0  0  0  4           0  0  0
   -4.8320    1.2669    5.8738 C   0  0  0  0  0  4           0  0  0
   -5.7183    0.0249    5.8646 C   0  0  0  0  0  4           0  0  0
  1  7  1  0     0  0
  1 17  1  0     0  0
  2  7  2  0     0  0
  2  8  1  0     0  0
  3  8  2  0     0  0
  3  9  1  0     0  0
  4  8  1  0     0  0
  4 10  1  0     0  0
  5  9  1  0     0  0
  6 18  3  0     0  0
  7 12  1  0     0  0
  9 12  2  0     0  0
 10 13  2  0     0  0
 10 14  1  0     0  0
 11 15  2  0     0  0
 11 16  1  0     0  0
 11 19  1  0     0  0
 13 15  1  0     0  0
 14 16  2  0     0  0
 17 20  1  0     0  0
 18 19  1  0     0  0
 20 21  1  0     0  0
 20 22  1  0     0  0
 21 23  1  0     0  0
 22 24  1  0     0  0
 23 25  1  0     0  0
 24 25  1  0     0  0
M  END
> <Compound >
13

> <standard_type>
pIC50

> <# Confs.>
25

> <canonical_smiles>
NC1=CC(OCC2CCCCC2)=NC(NC3=CC=C(CC#N)C=C3)=N1

> <standard_relation>
=

> <predicted_activity_value>
4.517134988077452

> <actual_activity_value>
4.619788758288394

> <Publication ID>
nan

> <standard_units>
nM

> hash
5259875804365495897

$$$$
13_
XXILIB    08252103513D 0   0.00000     0.00000

 25 27  0     1  0            999 V2000
   -2.7769   -0.0048    2.2750 O   0  0  0  0  0  2           0  0  0
   -0.6705    0.0000    1.1754 N   0  0  0  0  0  3           0  0  0
   -0.6200    0.0012   -1.2057 N   0  0  0  0  0  3           0  0  0
    1.4051    0.0000   -0.0000 N   0  0  0  0  0  3           0  0  0
   -2.6269   -0.0209   -2.4687 N   0  0  0  0  0  3           0  0  0
    5.0601   -2.1607    5.7938 N   0  0  0  0  0  3           0  0  0
   -2.0194   -0.0013    1.1133 C   0  0  0  0  0  4           0  0  0
    0.0000    0.0000    0.0000 C   0  0  0  0  0  4           0  0  0
   -1.9747    0.0163   -1.2390 C   0  0  0  0  0  4           0  0  0
    2.3181    0.0000    1.0579 C   0  0  0  0  0  4           0  0  0
    4.2252   -0.0442    3.1527 C   0  0  0  0  0  4           0  0  0
   -2.7226    0.0009   -0.0738 C   0  0  0  0  0  4           0  0  0
    2.0382    0.5903    2.2986 C   0  0  0  0  0  4           0  0  0
    3.5695   -0.6104    0.8844 C   0  0  0  0  0  4           0  0  0
    2.9809    0.5713    3.3324 C   0  0  0  0  0  4           0  0  0
    4.5126   -0.6316    1.9160 C   0  0  0  0  0  4           0  0  0
   -2.0309   -0.0068    3.4933 C   0  0  0  0  0  4           0  0  0
    5.1385   -1.2252    5.1114 C   0  0  0  0  0  4           0  0  0
    5.2448   -0.0439    4.2543 C   0  0  0  0  0  4           0  0  0
   -3.0071   -0.0105    4.6669 C   0  0  2  0  0  4           0  0  0
   -2.2676   -0.0128    6.0146 C   0  0  0  0  0  4           0  0  0
   -3.9755   -1.2020    4.5911 C   0  0  0  0  0  4           0  0  0
   -3.2443   -0.0130    7.1893 C   0  0  0  0  0  4           0  0  0
   -4.9542   -1.2034    5.7642 C   0  0  0  0  0  4           0  0  0
   -4.2239   -1.1797    7.1038 C   0  0  0  0  0  4           0  0  0
  1  7  1  0     0  0
  1 17  1  0     0  0
  2  7  2  0     0  0
  2  8  1  0     0  0
  3  8  2  0     0  0
  3  9  1  0     0  0
  4  8  1  0     0  0
  4 10  1  0     0  0
  5  9  1  0     0  0
  6 18  3  0     0  0
  7 12  1  0     0  0
  9 12  2  0     0  0
 10 13  2  0     0  0
 10 14  1  0     0  0
 11 15  2  0     0  0
 11 16  1  0     0  0
 11 19  1  0     0  0
 13 15  1  0     0  0
 14 16  2  0     0  0
 17 20  1  0     0  0
 18 19  1  0     0  0
 20 21  1  0     0  0
 20 22  1  0     0  0
 21 23  1  0     0  0
 22 24  1  0     0  0
 23 25  1  0     0  0
 24 25  1  0     0  0
M  END
> <Compound >
13

> <standard_type>
pIC50

> <# Confs.>
25

> <canonical_smiles>
NC1=CC(OCC2CCCCC2)=NC(NC3=CC=C(CC#N)C=C3)=N1

> <standard_relation>
=

> <predicted_activity_value>
4.517134988077452

> <actual_activity_value>
4.619788758288394

> <Publication ID>
nan

> <standard_units>
nM

> hash
5259875804365495897

$$$$
13_
XXILIB    08252103513D 0   0.00000     0.00000

 25 27  0     1  0            999 V2000
   -2.7769   -0.0048    2.2750 O   0  0  0  0  0  2           0  0  0
   -0.6705    0.0000    1.1754 N   0  0  0  0  0  3           0  0  0
   -0.6200    0.0012   -1.2057 N   0  0  0  0  0  3           0  0  0
    1.4051    0.0000   -0.0000 N   0  0  0  0  0  3           0  0  0
   -2.6269   -0.0209   -2.4687 N   0  0  0  0  0  3           0  0  0
    5.0601   -2.1607    5.7938 N   0  0  0  0  0  3           0  0  0
   -2.0194   -0.0013    1.1133 C   0  0  0  0  0  4           0  0  0
    0.0000    0.0000    0.0000 C   0  0  0  0  0  4           0  0  0
   -1.9747    0.0163   -1.2390 C   0  0  0  0  0  4           0  0  0
    2.3181    0.0000    1.0579 C   0  0  0  0  0  4           0  0  0
    4.2252   -0.0442    3.1527 C   0  0  0  0  0  4           0  0  0
   -2.7226    0.0009   -0.0738 C   0  0  0  0  0  4           0  0  0
    2.0382    0.5903    2.2986 C   0  0  0  0  0  4           0  0  0
    3.5695   -0.6104    0.8844 C   0  0  0  0  0  4           0  0  0
    2.9809    0.5713    3.3324 C   0  0  0  0  0  4           0  0  0
    4.5126   -0.6316    1.9160 C   0  0  0  0  0  4           0  0  0
   -2.0309   -0.0068    3.4933 C   0  0  0  0  0  4           0  0  0
    5.1385   -1.2252    5.1114 C   0  0  0  0  0  4           0  0  0
    5.2448   -0.0439    4.2543 C   0  0  0  0  0  4           0  0  0
   -3.0071   -0.0105    4.6669 C   0  0  2  0  0  4           0  0  0
   -3.9158   -1.2502    4.6396 C   0  0  0  0  0  4           0  0  0
   -3.8573    1.2698    4.6973 C   0  0  0  0  0  4           0  0  0
   -4.8905   -1.2560    5.8160 C   0  0  0  0  0  4           0  0  0
   -4.8320    1.2669    5.8738 C   0  0  0  0  0  4           0  0  0
   -5.7183    0.0249    5.8646 C   0  0  0  0  0  4           0  0  0
  1  7  1  0     0  0
  1 17  1  0     0  0
  2  7  2  0     0  0
  2  8  1  0     0  0
  3  8  2  0     0  0
  3  9  1  0     0  0
  4  8  1  0     0  0
  4 10  1  0     0  0
  5  9  1  0     0  0
  6 18  3  0     0  0
  7 12  1  0     0  0
  9 12  2  0     0  0
 10 13  2  0     0  0
 10 14  1  0     0  0
 11 15  2  0     0  0
 11 16  1  0     0  0
 11 19  1  0     0  0
 13 15  1  0     0  0
 14 16  2  0     0  0
 17 20  1  0     0  0
 18 19  1  0     0  0
 20 21  1  0     0  0
 20 22  1  0     0  0
 21 23  1  0     0  0
 22 24  1  0     0  0
 23 25  1  0     0  0
 24 25  1  0     0  0
M  END
> <Compound >
13

> <standard_type>
pIC50

> <# Confs.>
25

> <canonical_smiles>
NC1=CC(OCC2CCCCC2)=NC(NC3=CC=C(CC#N)C=C3)=N1

> <standard_relation>
=

> <predicted_activity_value>
4.517134988077452

> <actual_activity_value>
4.619788758288394

> <Publication ID>
nan

> <standard_units>
nM

> hash
5259875804365495897

$$$$
13_
XXILIB    08252103513D 0   0.00000     0.00000

 25 27  0     1  0            999 V2000
   -2.7769   -0.0048    2.2750 O   0  0  0  0  0  2           0  0  0
   -0.6705    0.0000    1.1754 N   0  0  0  0  0  3           0  0  0
   -0.6200    0.0012   -1.2057 N   0  0  0  0  0  3           0  0  0
    1.4051   -0.0000    0.0000 N   0  0  0  0  0  3           0  0  0
   -2.6269   -0.0209   -2.4687 N   0  0  0  0  0  3           0  0  0
    4.9257    2.1997    5.8002 N   0  0  0  0  0  3           0  0  0
   -2.0194   -0.0013    1.1133 C   0  0  0  0  0  4           0  0  0
    0.0000    0.0000    0.0000 C   0  0  0  0  0  4           0  0  0
   -1.9747    0.0163   -1.2390 C   0  0  0  0  0  4           0  0  0
    2.3181   -0.0000    1.0579 C   0  0  0  0  0  4           0  0  0
    4.2257    0.0431    3.1523 C   0  0  0  0  0  4           0  0  0
   -2.7226    0.0009   -0.0738 C   0  0  0  0  0  4           0  0  0
    2.0382   -0.5903    2.2986 C   0  0  0  0  0  4           0  0  0
    3.5682    0.6135    0.8856 C   0  0  0  0  0  4           0  0  0
    2.9788   -0.5666    3.3342 C   0  0  0  0  0  4           0  0  0
    4.5100    0.6376    1.9183 C   0  0  0  0  0  4           0  0  0
   -2.0309   -0.0068    3.4933 C   0  0  0  0  0  4           0  0  0
    5.0560    1.2674    5.1214 C   0  0  0  0  0  4           0  0  0
    5.2253    0.0885    4.2711 C   0  0  0  0  0  4           0  0  0
   -3.0071   -0.0105    4.6669 C   0  0  2  0  0  4           0  0  0
   -2.2667   -0.0128    6.0127 C   0  0  0  0  0  4           0  0  0
   -4.0062    1.1587    4.6049 C   0  0  0  0  0  4           0  0  0
   -1.6230    1.3335    6.3402 C   0  0  0  0  0  4           0  0  0
   -3.3672    2.5067    4.9351 C   0  0  0  0  0  4           0  0  0
   -2.6370    2.4714    6.2741 C   0  0  0  0  0  4           0  0  0
  1  7  1  0     0  0
  1 17  1  0     0  0
  2  7  2  0     0  0
  2  8  1  0     0  0
  3  8  2  0     0  0
  3  9  1  0     0  0
  4  8  1  0     0  0
  4 10  1  0     0  0
  5  9  1  0     0  0
  6 18  3  0     0  0
  7 12  1  0     0  0
  9 12  2  0     0  0
 10 13  2  0     0  0
 10 14  1  0     0  0
 11 15  2  0     0  0
 11 16  1  0     0  0
 11 19  1  0     0  0
 13 15  1  0     0  0
 14 16  2  0     0  0
 17 20  1  0     0  0
 18 19  1  0     0  0
 20 21  1  0     0  0
 20 22  1  0     0  0
 21 23  1  0     0  0
 22 24  1  0     0  0
 23 25  1  0     0  0
 24 25  1  0     0  0
M  END
> <Compound >
13

> <standard_type>
pIC50

> <# Confs.>
25

> <canonical_smiles>
NC1=CC(OCC2CCCCC2)=NC(NC3=CC=C(CC#N)C=C3)=N1

> <standard_relation>
=

> <predicted_activity_value>
4.517134988077452

> <actual_activity_value>
4.619788758288394

> <Publication ID>
nan

> <standard_units>
nM

> hash
5259875804365495897

$$$$
13_
XXILIB    08252103513D 0   0.00000     0.00000

 25 27  0     1  0            999 V2000
   -2.7769   -0.0048    2.2750 O   0  0  0  0  0  2           0  0  0
   -0.6705    0.0000    1.1754 N   0  0  0  0  0  3           0  0  0
   -0.6200    0.0012   -1.2057 N   0  0  0  0  0  3           0  0  0
    1.4051    0.0000   -0.0000 N   0  0  0  0  0  3           0  0  0
   -2.6269   -0.0209   -2.4687 N   0  0  0  0  0  3           0  0  0
    6.7934    2.0733    4.1885 N   0  0  0  0  0  3           0  0  0
   -2.0194   -0.0013    1.1133 C   0  0  0  0  0  4           0  0  0
    0.0000    0.0000    0.0000 C   0  0  0  0  0  4           0  0  0
   -1.9747    0.0163   -1.2390 C   0  0  0  0  0  4           0  0  0
    2.3181    0.0000    1.0579 C   0  0  0  0  0  4           0  0  0
    4.2252   -0.0442    3.1527 C   0  0  0  0  0  4           0  0  0
   -2.7226    0.0009   -0.0738 C   0  0  0  0  0  4           0  0  0
    2.0382    0.5903    2.2986 C   0  0  0  0  0  4           0  0  0
    3.5695   -0.6104    0.8844 C   0  0  0  0  0  4           0  0  0
    2.9809    0.5713    3.3324 C   0  0  0  0  0  4           0  0  0
    4.5126   -0.6316    1.9160 C   0  0  0  0  0  4           0  0  0
   -2.0309   -0.0068    3.4933 C   0  0  0  0  0  4           0  0  0
    6.1072    1.1377    4.2143 C   0  0  0  0  0  4           0  0  0
    5.2448   -0.0439    4.2543 C   0  0  0  0  0  4           0  0  0
   -3.0071   -0.0105    4.6669 C   0  0  2  0  0  4           0  0  0
   -2.2667   -0.0128    6.0127 C   0  0  0  0  0  4           0  0  0
   -4.0062    1.1587    4.6049 C   0  0  0  0  0  4           0  0  0
   -1.6230    1.3335    6.3402 C   0  0  0  0  0  4           0  0  0
   -3.3672    2.5067    4.9351 C   0  0  0  0  0  4           0  0  0
   -2.6370    2.4714    6.2741 C   0  0  0  0  0  4           0  0  0
  1  7  1  0     0  0
  1 17  1  0     0  0
  2  7  2  0     0  0
  2  8  1  0     0  0
  3  8  2  0     0  0
  3  9  1  0     0  0
  4  8  1  0     0  0
  4 10  1  0     0  0
  5  9  1  0     0  0
  6 18  3  0     0  0
  7 12  1  0     0  0
  9 12  2  0     0  0
 10 13  2  0     0  0
 10 14  1  0     0  0
 11 15  2  0     0  0
 11 16  1  0     0  0
 11 19  1  0     0  0
 13 15  1  0     0  0
 14 16  2  0     0  0
 17 20  1  0     0  0
 18 19  1  0     0  0
 20 21  1  0     0  0
 20 22  1  0     0  0
 21 23  1  0     0  0
 22 24  1  0     0  0
 23 25  1  0     0  0
 24 25  1  0     0  0
M  END
> <Compound >
13

> <standard_type>
pIC50

> <# Confs.>
25

> <canonical_smiles>
NC1=CC(OCC2CCCCC2)=NC(NC3=CC=C(CC#N)C=C3)=N1

> <standard_relation>
=

> <predicted_activity_value>
4.517134988077452

> <actual_activity_value>
4.619788758288394

> <Publication ID>
nan

> <standard_units>
nM

> hash
5259875804365495897

$$$$
13_
XXILIB    08252103513D 0   0.00000     0.00000

 25 27  0     1  0            999 V2000
   -2.7769   -0.0048    2.2750 O   0  0  0  0  0  2           0  0  0
   -0.6705    0.0000    1.1754 N   0  0  0  0  0  3           0  0  0
   -0.6200    0.0012   -1.2057 N   0  0  0  0  0  3           0  0  0
    1.4051   -0.0000    0.0000 N   0  0  0  0  0  3           0  0  0
   -2.6269   -0.0209   -2.4687 N   0  0  0  0  0  3           0  0  0
    4.9257    2.1997    5.8002 N   0  0  0  0  0  3           0  0  0
   -2.0194   -0.0013    1.1133 C   0  0  0  0  0  4           0  0  0
    0.0000    0.0000    0.0000 C   0  0  0  0  0  4           0  0  0
   -1.9747    0.0163   -1.2390 C   0  0  0  0  0  4           0  0  0
    2.3181   -0.0000    1.0579 C   0  0  0  0  0  4           0  0  0
    4.2257    0.0431    3.1523 C   0  0  0  0  0  4           0  0  0
   -2.7226    0.0009   -0.0738 C   0  0  0  0  0  4           0  0  0
    2.0382   -0.5903    2.2986 C   0  0  0  0  0  4           0  0  0
    3.5682    0.6135    0.8856 C   0  0  0  0  0  4           0  0  0
    2.9788   -0.5666    3.3342 C   0  0  0  0  0  4           0  0  0
    4.5100    0.6376    1.9183 C   0  0  0  0  0  4           0  0  0
   -2.0309   -0.0068    3.4933 C   0  0  0  0  0  4           0  0  0
    5.0560    1.2674    5.1214 C   0  0  0  0  0  4           0  0  0
    5.2253    0.0885    4.2711 C   0  0  0  0  0  4           0  0  0
   -3.0071   -0.0105    4.6669 C   0  0  2  0  0  4           0  0  0
   -3.9143   -1.2498    4.6382 C   0  0  0  0  0  4           0  0  0
   -2.2937    0.1022    6.0261 C   0  0  0  0  0  4           0  0  0
   -3.1826   -2.5322    5.0306 C   0  0  0  0  0  4           0  0  0
   -1.5633   -1.1795    6.4239 C   0  0  0  0  0  4           0  0  0
   -2.4887   -2.3916    6.3819 C   0  0  0  0  0  4           0  0  0
  1  7  1  0     0  0
  1 17  1  0     0  0
  2  7  2  0     0  0
  2  8  1  0     0  0
  3  8  2  0     0  0
  3  9  1  0     0  0
  4  8  1  0     0  0
  4 10  1  0     0  0
  5  9  1  0     0  0
  6 18  3  0     0  0
  7 12  1  0     0  0
  9 12  2  0     0  0
 10 13  2  0     0  0
 10 14  1  0     0  0
 11 15  2  0     0  0
 11 16  1  0     0  0
 11 19  1  0     0  0
 13 15  1  0     0  0
 14 16  2  0     0  0
 17 20  1  0     0  0
 18 19  1  0     0  0
 20 21  1  0     0  0
 20 22  1  0     0  0
 21 23  1  0     0  0
 22 24  1  0     0  0
 23 25  1  0     0  0
 24 25  1  0     0  0
M  END
> <Compound >
13

> <standard_type>
pIC50

> <# Confs.>
25

> <canonical_smiles>
NC1=CC(OCC2CCCCC2)=NC(NC3=CC=C(CC#N)C=C3)=N1

> <standard_relation>
=

> <predicted_activity_value>
4.517134988077452

> <actual_activity_value>
4.619788758288394

> <Publication ID>
nan

> <standard_units>
nM

> hash
5259875804365495897

$$$$
13_
XXILIB    08252103513D 0   0.00000     0.00000

 25 27  0     1  0            999 V2000
   -2.7769   -0.0048    2.2750 O   0  0  0  0  0  2           0  0  0
   -0.6705    0.0000    1.1754 N   0  0  0  0  0  3           0  0  0
   -0.6200    0.0012   -1.2057 N   0  0  0  0  0  3           0  0  0
    1.4051   -0.0000    0.0000 N   0  0  0  0  0  3           0  0  0
   -2.6269   -0.0209   -2.4687 N   0  0  0  0  0  3           0  0  0
    6.8621   -1.9621    4.2388 N   0  0  0  0  0  3           0  0  0
   -2.0194   -0.0013    1.1133 C   0  0  0  0  0  4           0  0  0
    0.0000    0.0000    0.0000 C   0  0  0  0  0  4           0  0  0
   -1.9747    0.0163   -1.2390 C   0  0  0  0  0  4           0  0  0
    2.3181   -0.0000    1.0579 C   0  0  0  0  0  4           0  0  0
    4.2257    0.0431    3.1523 C   0  0  0  0  0  4           0  0  0
   -2.7226    0.0009   -0.0738 C   0  0  0  0  0  4           0  0  0
    2.0382   -0.5903    2.2986 C   0  0  0  0  0  4           0  0  0
    3.5682    0.6135    0.8856 C   0  0  0  0  0  4           0  0  0
    2.9788   -0.5666    3.3342 C   0  0  0  0  0  4           0  0  0
    4.5100    0.6376    1.9183 C   0  0  0  0  0  4           0  0  0
   -2.0309   -0.0068    3.4933 C   0  0  0  0  0  4           0  0  0
    6.1360   -1.0568    4.2506 C   0  0  0  0  0  4           0  0  0
    5.2253    0.0885    4.2711 C   0  0  0  0  0  4           0  0  0
   -3.0071   -0.0105    4.6669 C   0  0  2  0  0  4           0  0  0
   -2.2667   -0.0128    6.0127 C   0  0  0  0  0  4           0  0  0
   -4.0062    1.1587    4.6049 C   0  0  0  0  0  4           0  0  0
   -1.6230    1.3335    6.3402 C   0  0  0  0  0  4           0  0  0
   -3.3672    2.5067    4.9351 C   0  0  0  0  0  4           0  0  0
   -2.6370    2.4714    6.2741 C   0  0  0  0  0  4           0  0  0
  1  7  1  0     0  0
  1 17  1  0     0  0
  2  7  2  0     0  0
  2  8  1  0     0  0
  3  8  2  0     0  0
  3  9  1  0     0  0
  4  8  1  0     0  0
  4 10  1  0     0  0
  5  9  1  0     0  0
  6 18  3  0     0  0
  7 12  1  0     0  0
  9 12  2  0     0  0
 10 13  2  0     0  0
 10 14  1  0     0  0
 11 15  2  0     0  0
 11 16  1  0     0  0
 11 19  1  0     0  0
 13 15  1  0     0  0
 14 16  2  0     0  0
 17 20  1  0     0  0
 18 19  1  0     0  0
 20 21  1  0     0  0
 20 22  1  0     0  0
 21 23  1  0     0  0
 22 24  1  0     0  0
 23 25  1  0     0  0
 24 25  1  0     0  0
M  END
> <Compound >
13

> <standard_type>
pIC50

> <# Confs.>
25

> <canonical_smiles>
NC1=CC(OCC2CCCCC2)=NC(NC3=CC=C(CC#N)C=C3)=N1

> <standard_relation>
=

> <predicted_activity_value>
4.517134988077452

> <actual_activity_value>
4.619788758288394

> <Publication ID>
nan

> <standard_units>
nM

> hash
5259875804365495897

$$$$
13_
XXILIB    08252103513D 0   0.00000     0.00000

 25 27  0     1  0            999 V2000
   -2.7769   -0.0048    2.2750 O   0  0  0  0  0  2           0  0  0
   -0.6705    0.0000    1.1754 N   0  0  0  0  0  3           0  0  0
   -0.6200    0.0012   -1.2057 N   0  0  0  0  0  3           0  0  0
    1.4051   -0.0000    0.0000 N   0  0  0  0  0  3           0  0  0
   -2.6269   -0.0209   -2.4687 N   0  0  0  0  0  3           0  0  0
    6.8621   -1.9621    4.2388 N   0  0  0  0  0  3           0  0  0
   -2.0194   -0.0013    1.1133 C   0  0  0  0  0  4           0  0  0
    0.0000    0.0000    0.0000 C   0  0  0  0  0  4           0  0  0
   -1.9747    0.0163   -1.2390 C   0  0  0  0  0  4           0  0  0
    2.3181   -0.0000    1.0579 C   0  0  0  0  0  4           0  0  0
    4.2257    0.0431    3.1523 C   0  0  0  0  0  4           0  0  0
   -2.7226    0.0009   -0.0738 C   0  0  0  0  0  4           0  0  0
    2.0382   -0.5903    2.2986 C   0  0  0  0  0  4           0  0  0
    3.5682    0.6135    0.8856 C   0  0  0  0  0  4           0  0  0
    2.9788   -0.5666    3.3342 C   0  0  0  0  0  4           0  0  0
    4.5100    0.6376    1.9183 C   0  0  0  0  0  4           0  0  0
   -2.0309   -0.0068    3.4933 C   0  0  0  0  0  4           0  0  0
    6.1360   -1.0568    4.2506 C   0  0  0  0  0  4           0  0  0
    5.2253    0.0885    4.2711 C   0  0  0  0  0  4           0  0  0
   -3.0071   -0.0105    4.6669 C   0  0  2  0  0  4           0  0  0
   -3.9143   -1.2498    4.6382 C   0  0  0  0  0  4           0  0  0
   -2.2937    0.1022    6.0261 C   0  0  0  0  0  4           0  0  0
   -3.1826   -2.5322    5.0306 C   0  0  0  0  0  4           0  0  0
   -1.5633   -1.1795    6.4239 C   0  0  0  0  0  4           0  0  0
   -2.4887   -2.3916    6.3819 C   0  0  0  0  0  4           0  0  0
  1  7  1  0     0  0
  1 17  1  0     0  0
  2  7  2  0     0  0
  2  8  1  0     0  0
  3  8  2  0     0  0
  3  9  1  0     0  0
  4  8  1  0     0  0
  4 10  1  0     0  0
  5  9  1  0     0  0
  6 18  3  0     0  0
  7 12  1  0     0  0
  9 12  2  0     0  0
 10 13  2  0     0  0
 10 14  1  0     0  0
 11 15  2  0     0  0
 11 16  1  0     0  0
 11 19  1  0     0  0
 13 15  1  0     0  0
 14 16  2  0     0  0
 17 20  1  0     0  0
 18 19  1  0     0  0
 20 21  1  0     0  0
 20 22  1  0     0  0
 21 23  1  0     0  0
 22 24  1  0     0  0
 23 25  1  0     0  0
 24 25  1  0     0  0
M  END
> <Compound >
13

> <standard_type>
pIC50

> <# Confs.>
25

> <canonical_smiles>
NC1=CC(OCC2CCCCC2)=NC(NC3=CC=C(CC#N)C=C3)=N1

> <standard_relation>
=

> <predicted_activity_value>
4.517134988077452

> <actual_activity_value>
4.619788758288394

> <Publication ID>
nan

> <standard_units>
nM

> hash
5259875804365495897

$$$$
13_
XXILIB    08252103513D 0   0.00000     0.00000

 25 27  0     1  0            999 V2000
   -2.7769   -0.0048    2.2750 O   0  0  0  0  0  2           0  0  0
   -0.6705    0.0000    1.1754 N   0  0  0  0  0  3           0  0  0
   -0.6200    0.0012   -1.2057 N   0  0  0  0  0  3           0  0  0
    1.4051    0.0000   -0.0000 N   0  0  0  0  0  3           0  0  0
   -2.6269   -0.0209   -2.4687 N   0  0  0  0  0  3           0  0  0
    6.7934    2.0733    4.1885 N   0  0  0  0  0  3           0  0  0
   -2.0194   -0.0013    1.1133 C   0  0  0  0  0  4           0  0  0
    0.0000    0.0000    0.0000 C   0  0  0  0  0  4           0  0  0
   -1.9747    0.0163   -1.2390 C   0  0  0  0  0  4           0  0  0
    2.3181    0.0000    1.0579 C   0  0  0  0  0  4           0  0  0
    4.2252   -0.0442    3.1527 C   0  0  0  0  0  4           0  0  0
   -2.7226    0.0009   -0.0738 C   0  0  0  0  0  4           0  0  0
    2.0382    0.5903    2.2986 C   0  0  0  0  0  4           0  0  0
    3.5695   -0.6104    0.8844 C   0  0  0  0  0  4           0  0  0
    2.9809    0.5713    3.3324 C   0  0  0  0  0  4           0  0  0
    4.5126   -0.6316    1.9160 C   0  0  0  0  0  4           0  0  0
   -2.0309   -0.0068    3.4933 C   0  0  0  0  0  4           0  0  0
    6.1072    1.1377    4.2143 C   0  0  0  0  0  4           0  0  0
    5.2448   -0.0439    4.2543 C   0  0  0  0  0  4           0  0  0
   -3.0071   -0.0105    4.6669 C   0  0  2  0  0  4           0  0  0
   -3.9143   -1.2498    4.6382 C   0  0  0  0  0  4           0  0  0
   -2.2937    0.1022    6.0261 C   0  0  0  0  0  4           0  0  0
   -3.1826   -2.5322    5.0306 C   0  0  0  0  0  4           0  0  0
   -1.5633   -1.1795    6.4239 C   0  0  0  0  0  4           0  0  0
   -2.4887   -2.3916    6.3819 C   0  0  0  0  0  4           0  0  0
  1  7  1  0     0  0
  1 17  1  0     0  0
  2  7  2  0     0  0
  2  8  1  0     0  0
  3  8  2  0     0  0
  3  9  1  0     0  0
  4  8  1  0     0  0
  4 10  1  0     0  0
  5  9  1  0     0  0
  6 18  3  0     0  0
  7 12  1  0     0  0
  9 12  2  0     0  0
 10 13  2  0     0  0
 10 14  1  0     0  0
 11 15  2  0     0  0
 11 16  1  0     0  0
 11 19  1  0     0  0
 13 15  1  0     0  0
 14 16  2  0     0  0
 17 20  1  0     0  0
 18 19  1  0     0  0
 20 21  1  0     0  0
 20 22  1  0     0  0
 21 23  1  0     0  0
 22 24  1  0     0  0
 23 25  1  0     0  0
 24 25  1  0     0  0
M  END
> <Compound >
13

> <standard_type>
pIC50

> <# Confs.>
25

> <canonical_smiles>
NC1=CC(OCC2CCCCC2)=NC(NC3=CC=C(CC#N)C=C3)=N1

> <standard_relation>
=

> <predicted_activity_value>
4.517134988077452

> <actual_activity_value>
4.619788758288394

> <Publication ID>
nan

> <standard_units>
nM

> hash
5259875804365495897

$$$$
13_
XXILIB    08252103513D 0   0.00000     0.00000

 25 27  0     1  0            999 V2000
   -2.7769   -0.0048    2.2750 O   0  0  0  0  0  2           0  0  0
   -0.6705    0.0000    1.1754 N   0  0  0  0  0  3           0  0  0
   -0.6200    0.0012   -1.2057 N   0  0  0  0  0  3           0  0  0
    1.4051    0.0000   -0.0000 N   0  0  0  0  0  3           0  0  0
   -2.6269   -0.0209   -2.4687 N   0  0  0  0  0  3           0  0  0
    5.0601   -2.1607    5.7938 N   0  0  0  0  0  3           0  0  0
   -2.0194   -0.0013    1.1133 C   0  0  0  0  0  4           0  0  0
    0.0000    0.0000    0.0000 C   0  0  0  0  0  4           0  0  0
   -1.9747    0.0163   -1.2390 C   0  0  0  0  0  4           0  0  0
    2.3181    0.0000    1.0579 C   0  0  0  0  0  4           0  0  0
    4.2252   -0.0442    3.1527 C   0  0  0  0  0  4           0  0  0
   -2.7226    0.0009   -0.0738 C   0  0  0  0  0  4           0  0  0
    2.0382    0.5903    2.2986 C   0  0  0  0  0  4           0  0  0
    3.5695   -0.6104    0.8844 C   0  0  0  0  0  4           0  0  0
    2.9809    0.5713    3.3324 C   0  0  0  0  0  4           0  0  0
    4.5126   -0.6316    1.9160 C   0  0  0  0  0  4           0  0  0
   -2.0309   -0.0068    3.4933 C   0  0  0  0  0  4           0  0  0
    5.1385   -1.2252    5.1114 C   0  0  0  0  0  4           0  0  0
    5.2448   -0.0439    4.2543 C   0  0  0  0  0  4           0  0  0
   -3.0071   -0.0105    4.6669 C   0  0  2  0  0  4           0  0  0
   -2.2667   -0.0128    6.0127 C   0  0  0  0  0  4           0  0  0
   -4.0062    1.1587    4.6049 C   0  0  0  0  0  4           0  0  0
   -1.6230    1.3335    6.3402 C   0  0  0  0  0  4           0  0  0
   -3.3672    2.5067    4.9351 C   0  0  0  0  0  4           0  0  0
   -2.6370    2.4714    6.2741 C   0  0  0  0  0  4           0  0  0
  1  7  1  0     0  0
  1 17  1  0     0  0
  2  7  2  0     0  0
  2  8  1  0     0  0
  3  8  2  0     0  0
  3  9  1  0     0  0
  4  8  1  0     0  0
  4 10  1  0     0  0
  5  9  1  0     0  0
  6 18  3  0     0  0
  7 12  1  0     0  0
  9 12  2  0     0  0
 10 13  2  0     0  0
 10 14  1  0     0  0
 11 15  2  0     0  0
 11 16  1  0     0  0
 11 19  1  0     0  0
 13 15  1  0     0  0
 14 16  2  0     0  0
 17 20  1  0     0  0
 18 19  1  0     0  0
 20 21  1  0     0  0
 20 22  1  0     0  0
 21 23  1  0     0  0
 22 24  1  0     0  0
 23 25  1  0     0  0
 24 25  1  0     0  0
M  END
> <Compound >
13

> <standard_type>
pIC50

> <# Confs.>
25

> <canonical_smiles>
NC1=CC(OCC2CCCCC2)=NC(NC3=CC=C(CC#N)C=C3)=N1

> <standard_relation>
=

> <predicted_activity_value>
4.517134988077452

> <actual_activity_value>
4.619788758288394

> <Publication ID>
nan

> <standard_units>
nM

> hash
5259875804365495897

$$$$
13_
XXILIB    08252103513D 0   0.00000     0.00000

 25 27  0     1  0            999 V2000
   -2.7769   -0.0048    2.2750 O   0  0  0  0  0  2           0  0  0
   -0.6705    0.0000    1.1754 N   0  0  0  0  0  3           0  0  0
   -0.6200    0.0012   -1.2057 N   0  0  0  0  0  3           0  0  0
    1.4051    0.0000   -0.0000 N   0  0  0  0  0  3           0  0  0
   -2.6269   -0.0209   -2.4687 N   0  0  0  0  0  3           0  0  0
    5.0601   -2.1607    5.7938 N   0  0  0  0  0  3           0  0  0
   -2.0194   -0.0013    1.1133 C   0  0  0  0  0  4           0  0  0
    0.0000    0.0000    0.0000 C   0  0  0  0  0  4           0  0  0
   -1.9747    0.0163   -1.2390 C   0  0  0  0  0  4           0  0  0
    2.3181    0.0000    1.0579 C   0  0  0  0  0  4           0  0  0
    4.2252   -0.0442    3.1527 C   0  0  0  0  0  4           0  0  0
   -2.7226    0.0009   -0.0738 C   0  0  0  0  0  4           0  0  0
    2.0382    0.5903    2.2986 C   0  0  0  0  0  4           0  0  0
    3.5695   -0.6104    0.8844 C   0  0  0  0  0  4           0  0  0
    2.9809    0.5713    3.3324 C   0  0  0  0  0  4           0  0  0
    4.5126   -0.6316    1.9160 C   0  0  0  0  0  4           0  0  0
   -2.0309   -0.0068    3.4933 C   0  0  0  0  0  4           0  0  0
    5.1385   -1.2252    5.1114 C   0  0  0  0  0  4           0  0  0
    5.2448   -0.0439    4.2543 C   0  0  0  0  0  4           0  0  0
   -3.0071   -0.0105    4.6669 C   0  0  2  0  0  4           0  0  0
   -3.9143   -1.2498    4.6382 C   0  0  0  0  0  4           0  0  0
   -2.2937    0.1022    6.0261 C   0  0  0  0  0  4           0  0  0
   -3.1826   -2.5322    5.0306 C   0  0  0  0  0  4           0  0  0
   -1.5633   -1.1795    6.4239 C   0  0  0  0  0  4           0  0  0
   -2.4887   -2.3916    6.3819 C   0  0  0  0  0  4           0  0  0
  1  7  1  0     0  0
  1 17  1  0     0  0
  2  7  2  0     0  0
  2  8  1  0     0  0
  3  8  2  0     0  0
  3  9  1  0     0  0
  4  8  1  0     0  0
  4 10  1  0     0  0
  5  9  1  0     0  0
  6 18  3  0     0  0
  7 12  1  0     0  0
  9 12  2  0     0  0
 10 13  2  0     0  0
 10 14  1  0     0  0
 11 15  2  0     0  0
 11 16  1  0     0  0
 11 19  1  0     0  0
 13 15  1  0     0  0
 14 16  2  0     0  0
 17 20  1  0     0  0
 18 19  1  0     0  0
 20 21  1  0     0  0
 20 22  1  0     0  0
 21 23  1  0     0  0
 22 24  1  0     0  0
 23 25  1  0     0  0
 24 25  1  0     0  0
M  END
> <Compound >
13

> <standard_type>
pIC50

> <# Confs.>
25

> <canonical_smiles>
NC1=CC(OCC2CCCCC2)=NC(NC3=CC=C(CC#N)C=C3)=N1

> <standard_relation>
=

> <predicted_activity_value>
4.517134988077452

> <actual_activity_value>
4.619788758288394

> <Publication ID>
nan

> <standard_units>
nM

> hash
5259875804365495897

$$$$
13_
XXILIB    08252103513D 0   0.00000     0.00000

 25 27  0     1  0            999 V2000
   -2.7769   -0.0048    2.2750 O   0  0  0  0  0  2           0  0  0
   -0.6705    0.0000    1.1754 N   0  0  0  0  0  3           0  0  0
   -0.6200    0.0012   -1.2057 N   0  0  0  0  0  3           0  0  0
    1.4051   -0.0000    0.0000 N   0  0  0  0  0  3           0  0  0
   -2.6269   -0.0209   -2.4687 N   0  0  0  0  0  3           0  0  0
    6.7934   -2.0733   -4.1885 N   0  0  0  0  0  3           0  0  0
   -2.0194   -0.0013    1.1133 C   0  0  0  0  0  4           0  0  0
    0.0000    0.0000    0.0000 C   0  0  0  0  0  4           0  0  0
   -1.9747    0.0163   -1.2390 C   0  0  0  0  0  4           0  0  0
    2.3181    0.0000   -1.0579 C   0  0  0  0  0  4           0  0  0
    4.2252    0.0442   -3.1527 C   0  0  0  0  0  4           0  0  0
   -2.7226    0.0009   -0.0738 C   0  0  0  0  0  4           0  0  0
    2.0382   -0.5903   -2.2986 C   0  0  0  0  0  4           0  0  0
    3.5695    0.6104   -0.8844 C   0  0  0  0  0  4           0  0  0
    2.9809   -0.5713   -3.3324 C   0  0  0  0  0  4           0  0  0
    4.5126    0.6316   -1.9160 C   0  0  0  0  0  4           0  0  0
   -2.0309   -0.0068    3.4933 C   0  0  0  0  0  4           0  0  0
    6.1072   -1.1377   -4.2143 C   0  0  0  0  0  4           0  0  0
    5.2448    0.0439   -4.2543 C   0  0  0  0  0  4           0  0  0
   -3.0071   -0.0105    4.6669 C   0  0  2  0  0  4           0  0  0
   -3.9184    1.2273    4.6453 C   0  0  0  0  0  4           0  0  0
   -2.2705   -0.1035    6.0129 C   0  0  0  0  0  4           0  0  0
   -4.8979    1.2221    5.8177 C   0  0  0  0  0  4           0  0  0
   -3.2481   -0.1103    7.1869 C   0  0  0  0  0  4           0  0  0
   -4.1717    1.1038    7.1545 C   0  0  0  0  0  4           0  0  0
  1  7  1  0     0  0
  1 17  1  0     0  0
  2  7  2  0     0  0
  2  8  1  0     0  0
  3  8  2  0     0  0
  3  9  1  0     0  0
  4  8  1  0     0  0
  4 10  1  0     0  0
  5  9  1  0     0  0
  6 18  3  0     0  0
  7 12  1  0     0  0
  9 12  2  0     0  0
 10 13  2  0     0  0
 10 14  1  0     0  0
 11 15  2  0     0  0
 11 16  1  0     0  0
 11 19  1  0     0  0
 13 15  1  0     0  0
 14 16  2  0     0  0
 17 20  1  0     0  0
 18 19  1  0     0  0
 20 21  1  0     0  0
 20 22  1  0     0  0
 21 23  1  0     0  0
 22 24  1  0     0  0
 23 25  1  0     0  0
 24 25  1  0     0  0
M  END
> <Compound >
13

> <standard_type>
pIC50

> <# Confs.>
25

> <canonical_smiles>
NC1=CC(OCC2CCCCC2)=NC(NC3=CC=C(CC#N)C=C3)=N1

> <standard_relation>
=

> <predicted_activity_value>
4.517134988077452

> <actual_activity_value>
4.619788758288394

> <Publication ID>
nan

> <standard_units>
nM

> hash
5259875804365495897

$$$$
13_
XXILIB    08252103513D 0   0.00000     0.00000

 25 27  0     1  0            999 V2000
   -2.7769   -0.0048    2.2750 O   0  0  0  0  0  2           0  0  0
   -0.6705    0.0000    1.1754 N   0  0  0  0  0  3           0  0  0
   -0.6200    0.0012   -1.2057 N   0  0  0  0  0  3           0  0  0
    1.4051    0.0000    0.0000 N   0  0  0  0  0  3           0  0  0
   -2.6269   -0.0209   -2.4687 N   0  0  0  0  0  3           0  0  0
    6.8621    1.9621   -4.2388 N   0  0  0  0  0  3           0  0  0
   -2.0194   -0.0013    1.1133 C   0  0  0  0  0  4           0  0  0
    0.0000    0.0000    0.0000 C   0  0  0  0  0  4           0  0  0
   -1.9747    0.0163   -1.2390 C   0  0  0  0  0  4           0  0  0
    2.3181    0.0000   -1.0579 C   0  0  0  0  0  4           0  0  0
    4.2257   -0.0431   -3.1523 C   0  0  0  0  0  4           0  0  0
   -2.7226    0.0009   -0.0738 C   0  0  0  0  0  4           0  0  0
    2.0382    0.5903   -2.2986 C   0  0  0  0  0  4           0  0  0
    3.5682   -0.6135   -0.8856 C   0  0  0  0  0  4           0  0  0
    2.9788    0.5666   -3.3342 C   0  0  0  0  0  4           0  0  0
    4.5100   -0.6376   -1.9183 C   0  0  0  0  0  4           0  0  0
   -2.0309   -0.0068    3.4933 C   0  0  0  0  0  4           0  0  0
    6.1360    1.0568   -4.2506 C   0  0  0  0  0  4           0  0  0
    5.2253   -0.0885   -4.2711 C   0  0  0  0  0  4           0  0  0
   -3.0071   -0.0105    4.6669 C   0  0  2  0  0  4           0  0  0
   -3.9184    1.2273    4.6453 C   0  0  0  0  0  4           0  0  0
   -2.2705   -0.1035    6.0129 C   0  0  0  0  0  4           0  0  0
   -4.8979    1.2221    5.8177 C   0  0  0  0  0  4           0  0  0
   -3.2481   -0.1103    7.1869 C   0  0  0  0  0  4           0  0  0
   -4.1717    1.1038    7.1545 C   0  0  0  0  0  4           0  0  0
  1  7  1  0     0  0
  1 17  1  0     0  0
  2  7  2  0     0  0
  2  8  1  0     0  0
  3  8  2  0     0  0
  3  9  1  0     0  0
  4  8  1  0     0  0
  4 10  1  0     0  0
  5  9  1  0     0  0
  6 18  3  0     0  0
  7 12  1  0     0  0
  9 12  2  0     0  0
 10 13  2  0     0  0
 10 14  1  0     0  0
 11 15  2  0     0  0
 11 16  1  0     0  0
 11 19  1  0     0  0
 13 15  1  0     0  0
 14 16  2  0     0  0
 17 20  1  0     0  0
 18 19  1  0     0  0
 20 21  1  0     0  0
 20 22  1  0     0  0
 21 23  1  0     0  0
 22 24  1  0     0  0
 23 25  1  0     0  0
 24 25  1  0     0  0
M  END
> <Compound >
13

> <standard_type>
pIC50

> <# Confs.>
25

> <canonical_smiles>
NC1=CC(OCC2CCCCC2)=NC(NC3=CC=C(CC#N)C=C3)=N1

> <standard_relation>
=

> <predicted_activity_value>
4.517134988077452

> <actual_activity_value>
4.619788758288394

> <Publication ID>
nan

> <standard_units>
nM

> hash
5259875804365495897

$$$$
13_
XXILIB    08252103513D 0   0.00000     0.00000

 25 27  0     1  0            999 V2000
   -2.7769   -0.0048    2.2750 O   0  0  0  0  0  2           0  0  0
   -0.6705    0.0000    1.1754 N   0  0  0  0  0  3           0  0  0
   -0.6200    0.0012   -1.2057 N   0  0  0  0  0  3           0  0  0
    1.4051   -0.0000    0.0000 N   0  0  0  0  0  3           0  0  0
   -2.6269   -0.0209   -2.4687 N   0  0  0  0  0  3           0  0  0
    6.7934   -2.0733   -4.1885 N   0  0  0  0  0  3           0  0  0
   -2.0194   -0.0013    1.1133 C   0  0  0  0  0  4           0  0  0
    0.0000    0.0000    0.0000 C   0  0  0  0  0  4           0  0  0
   -1.9747    0.0163   -1.2390 C   0  0  0  0  0  4           0  0  0
    2.3181    0.0000   -1.0579 C   0  0  0  0  0  4           0  0  0
    4.2252    0.0442   -3.1527 C   0  0  0  0  0  4           0  0  0
   -2.7226    0.0009   -0.0738 C   0  0  0  0  0  4           0  0  0
    2.0382   -0.5903   -2.2986 C   0  0  0  0  0  4           0  0  0
    3.5695    0.6104   -0.8844 C   0  0  0  0  0  4           0  0  0
    2.9809   -0.5713   -3.3324 C   0  0  0  0  0  4           0  0  0
    4.5126    0.6316   -1.9160 C   0  0  0  0  0  4           0  0  0
   -2.0309   -0.0068    3.4933 C   0  0  0  0  0  4           0  0  0
    6.1072   -1.1377   -4.2143 C   0  0  0  0  0  4           0  0  0
    5.2448    0.0439   -4.2543 C   0  0  0  0  0  4           0  0  0
   -3.0071   -0.0105    4.6669 C   0  0  2  0  0  4           0  0  0
   -2.2676   -0.0128    6.0146 C   0  0  0  0  0  4           0  0  0
   -3.9755   -1.2020    4.5911 C   0  0  0  0  0  4           0  0  0
   -3.2443   -0.0130    7.1893 C   0  0  0  0  0  4           0  0  0
   -4.9542   -1.2034    5.7642 C   0  0  0  0  0  4           0  0  0
   -4.2239   -1.1797    7.1038 C   0  0  0  0  0  4           0  0  0
  1  7  1  0     0  0
  1 17  1  0     0  0
  2  7  2  0     0  0
  2  8  1  0     0  0
  3  8  2  0     0  0
  3  9  1  0     0  0
  4  8  1  0     0  0
  4 10  1  0     0  0
  5  9  1  0     0  0
  6 18  3  0     0  0
  7 12  1  0     0  0
  9 12  2  0     0  0
 10 13  2  0     0  0
 10 14  1  0     0  0
 11 15  2  0     0  0
 11 16  1  0     0  0
 11 19  1  0     0  0
 13 15  1  0     0  0
 14 16  2  0     0  0
 17 20  1  0     0  0
 18 19  1  0     0  0
 20 21  1  0     0  0
 20 22  1  0     0  0
 21 23  1  0     0  0
 22 24  1  0     0  0
 23 25  1  0     0  0
 24 25  1  0     0  0
M  END
> <Compound >
13

> <standard_type>
pIC50

> <# Confs.>
25

> <canonical_smiles>
NC1=CC(OCC2CCCCC2)=NC(NC3=CC=C(CC#N)C=C3)=N1

> <standard_relation>
=

> <predicted_activity_value>
4.517134988077452

> <actual_activity_value>
4.619788758288394

> <Publication ID>
nan

> <standard_units>
nM

> hash
5259875804365495897

$$$$
13_
XXILIB    08252103513D 0   0.00000     0.00000

 25 27  0     1  0            999 V2000
   -2.7769   -0.0048    2.2750 O   0  0  0  0  0  2           0  0  0
   -0.6705    0.0000    1.1754 N   0  0  0  0  0  3           0  0  0
   -0.6200    0.0012   -1.2057 N   0  0  0  0  0  3           0  0  0
    1.4051    0.0000    0.0000 N   0  0  0  0  0  3           0  0  0
   -2.6269   -0.0209   -2.4687 N   0  0  0  0  0  3           0  0  0
    6.8621    1.9621   -4.2388 N   0  0  0  0  0  3           0  0  0
   -2.0194   -0.0013    1.1133 C   0  0  0  0  0  4           0  0  0
    0.0000    0.0000    0.0000 C   0  0  0  0  0  4           0  0  0
   -1.9747    0.0163   -1.2390 C   0  0  0  0  0  4           0  0  0
    2.3181    0.0000   -1.0579 C   0  0  0  0  0  4           0  0  0
    4.2257   -0.0431   -3.1523 C   0  0  0  0  0  4           0  0  0
   -2.7226    0.0009   -0.0738 C   0  0  0  0  0  4           0  0  0
    2.0382    0.5903   -2.2986 C   0  0  0  0  0  4           0  0  0
    3.5682   -0.6135   -0.8856 C   0  0  0  0  0  4           0  0  0
    2.9788    0.5666   -3.3342 C   0  0  0  0  0  4           0  0  0
    4.5100   -0.6376   -1.9183 C   0  0  0  0  0  4           0  0  0
   -2.0309   -0.0068    3.4933 C   0  0  0  0  0  4           0  0  0
    6.1360    1.0568   -4.2506 C   0  0  0  0  0  4           0  0  0
    5.2253   -0.0885   -4.2711 C   0  0  0  0  0  4           0  0  0
   -3.0071   -0.0105    4.6669 C   0  0  2  0  0  4           0  0  0
   -2.2676   -0.0128    6.0146 C   0  0  0  0  0  4           0  0  0
   -3.9755   -1.2020    4.5911 C   0  0  0  0  0  4           0  0  0
   -3.2443   -0.0130    7.1893 C   0  0  0  0  0  4           0  0  0
   -4.9542   -1.2034    5.7642 C   0  0  0  0  0  4           0  0  0
   -4.2239   -1.1797    7.1038 C   0  0  0  0  0  4           0  0  0
  1  7  1  0     0  0
  1 17  1  0     0  0
  2  7  2  0     0  0
  2  8  1  0     0  0
  3  8  2  0     0  0
  3  9  1  0     0  0
  4  8  1  0     0  0
  4 10  1  0     0  0
  5  9  1  0     0  0
  6 18  3  0     0  0
  7 12  1  0     0  0
  9 12  2  0     0  0
 10 13  2  0     0  0
 10 14  1  0     0  0
 11 15  2  0     0  0
 11 16  1  0     0  0
 11 19  1  0     0  0
 13 15  1  0     0  0
 14 16  2  0     0  0
 17 20  1  0     0  0
 18 19  1  0     0  0
 20 21  1  0     0  0
 20 22  1  0     0  0
 21 23  1  0     0  0
 22 24  1  0     0  0
 23 25  1  0     0  0
 24 25  1  0     0  0
M  END
> <Compound >
13

> <standard_type>
pIC50

> <# Confs.>
25

> <canonical_smiles>
NC1=CC(OCC2CCCCC2)=NC(NC3=CC=C(CC#N)C=C3)=N1

> <standard_relation>
=

> <predicted_activity_value>
4.517134988077452

> <actual_activity_value>
4.619788758288394

> <Publication ID>
nan

> <standard_units>
nM

> hash
5259875804365495897

$$$$
13_
XXILIB    08252103513D 0   0.00000     0.00000

 25 27  0     1  0            999 V2000
   -2.7769   -0.0048    2.2750 O   0  0  0  0  0  2           0  0  0
   -0.6705    0.0000    1.1754 N   0  0  0  0  0  3           0  0  0
   -0.6200    0.0012   -1.2057 N   0  0  0  0  0  3           0  0  0
    1.4051   -0.0000    0.0000 N   0  0  0  0  0  3           0  0  0
   -2.6269   -0.0209   -2.4687 N   0  0  0  0  0  3           0  0  0
    6.7934   -2.0733   -4.1885 N   0  0  0  0  0  3           0  0  0
   -2.0194   -0.0013    1.1133 C   0  0  0  0  0  4           0  0  0
    0.0000    0.0000    0.0000 C   0  0  0  0  0  4           0  0  0
   -1.9747    0.0163   -1.2390 C   0  0  0  0  0  4           0  0  0
    2.3181    0.0000   -1.0579 C   0  0  0  0  0  4           0  0  0
    4.2252    0.0442   -3.1527 C   0  0  0  0  0  4           0  0  0
   -2.7226    0.0009   -0.0738 C   0  0  0  0  0  4           0  0  0
    2.0382   -0.5903   -2.2986 C   0  0  0  0  0  4           0  0  0
    3.5695    0.6104   -0.8844 C   0  0  0  0  0  4           0  0  0
    2.9809   -0.5713   -3.3324 C   0  0  0  0  0  4           0  0  0
    4.5126    0.6316   -1.9160 C   0  0  0  0  0  4           0  0  0
   -2.0309   -0.0068    3.4933 C   0  0  0  0  0  4           0  0  0
    6.1072   -1.1377   -4.2143 C   0  0  0  0  0  4           0  0  0
    5.2448    0.0439   -4.2543 C   0  0  0  0  0  4           0  0  0
   -3.0071   -0.0105    4.6669 C   0  0  2  0  0  4           0  0  0
   -3.9158   -1.2502    4.6396 C   0  0  0  0  0  4           0  0  0
   -3.8573    1.2698    4.6973 C   0  0  0  0  0  4           0  0  0
   -4.8905   -1.2560    5.8160 C   0  0  0  0  0  4           0  0  0
   -4.8320    1.2669    5.8738 C   0  0  0  0  0  4           0  0  0
   -5.7183    0.0249    5.8646 C   0  0  0  0  0  4           0  0  0
  1  7  1  0     0  0
  1 17  1  0     0  0
  2  7  2  0     0  0
  2  8  1  0     0  0
  3  8  2  0     0  0
  3  9  1  0     0  0
  4  8  1  0     0  0
  4 10  1  0     0  0
  5  9  1  0     0  0
  6 18  3  0     0  0
  7 12  1  0     0  0
  9 12  2  0     0  0
 10 13  2  0     0  0
 10 14  1  0     0  0
 11 15  2  0     0  0
 11 16  1  0     0  0
 11 19  1  0     0  0
 13 15  1  0     0  0
 14 16  2  0     0  0
 17 20  1  0     0  0
 18 19  1  0     0  0
 20 21  1  0     0  0
 20 22  1  0     0  0
 21 23  1  0     0  0
 22 24  1  0     0  0
 23 25  1  0     0  0
 24 25  1  0     0  0
M  END
> <Compound >
13

> <standard_type>
pIC50

> <# Confs.>
25

> <canonical_smiles>
NC1=CC(OCC2CCCCC2)=NC(NC3=CC=C(CC#N)C=C3)=N1

> <standard_relation>
=

> <predicted_activity_value>
4.517134988077452

> <actual_activity_value>
4.619788758288394

> <Publication ID>
nan

> <standard_units>
nM

> hash
5259875804365495897

$$$$
4_
XXILIB    08252103513D 0   0.00000     0.00000

 23 24  0     1  0            999 V2000
    5.3820   -0.1157    4.4452 S   0  0  2  0  0  6           0  0  0
    4.6499   -0.0166    5.6927 O   0  0  0  0  0  2           0  0  0
    6.2595   -1.2400    4.1844 O   0  0  0  0  0  2           0  0  0
   -4.5465    0.5575   -1.1095 O   0  0  0  0  0  2           0  0  0
   -2.7511   -0.0034    2.2963 O   0  0  0  0  0  2           0  0  0
   -0.6719   -0.0000    1.1718 N   0  0  0  0  0  3           0  0  0
   -0.6184    0.0023   -1.2040 N   0  0  0  0  0  3           0  0  0
    6.2324    1.3367    4.1731 N   0  0  0  0  0  3           0  0  0
   -4.1065   -0.0115   -0.1029 N   0  0  0  0  0  3           0  0  0
    1.4051   -0.0000   -0.0000 N   0  0  0  0  0  3           0  0  0
   -2.5800   -0.0108   -2.5038 N   0  0  0  0  0  3           0  0  0
    4.2059   -0.0440    3.1328 C   0  0  0  0  0  4           0  0  0
   -2.0230   -0.0047    1.1153 C   0  0  0  0  0  4           0  0  0
    0.0000    0.0000    0.0000 C   0  0  0  0  0  4           0  0  0
   -1.9745    0.0165   -1.2480 C   0  0  0  0  0  4           0  0  0
   -2.7354   -0.0116   -0.0796 C   0  0  0  0  0  4           0  0  0
    2.3178   -0.0000    1.0576 C   0  0  0  0  0  4           0  0  0
    2.9731    0.5697    3.3368 C   0  0  0  0  0  4           0  0  0
    4.5100   -0.6442    1.9136 C   0  0  0  0  0  4           0  0  0
    2.0361    0.5916    2.2995 C   0  0  0  0  0  4           0  0  0
    3.5680   -0.6165    0.8833 C   0  0  0  0  0  4           0  0  0
   -1.9502    0.0030    3.4778 C   0  0  0  0  0  4           0  0  0
   -2.8776    0.0037    4.6793 C   0  0  0  0  0  4           0  0  0
  1  2  2  0     0  0
  1  3  2  0     0  0
  1  8  1  0     0  0
  1 12  1  0     0  0
  4  9  2  0     0  0
  5 13  1  0     0  0
  5 22  1  0     0  0
  6 13  2  0     0  0
  6 14  1  0     0  0
  7 14  2  0     0  0
  7 15  1  0     0  0
  9 16  1  0     0  0
 10 14  1  0     0  0
 10 17  1  0     0  0
 11 15  1  0     0  0
 12 18  2  0     0  0
 12 19  1  0     0  0
 13 16  1  0     0  0
 15 16  2  0     0  0
 17 20  2  0     0  0
 17 21  1  0     0  0
 18 20  1  0     0  0
 19 21  2  0     0  0
 22 23  1  0     0  0
M  END
> <Compound >
4

> <standard_type>
pIC50

> <# Confs.>
25

> <canonical_smiles>
CCOC1=NC(NC2=CC=C(S(=O)(N)=O)C=C2)=NC(N)=C1N=O

> <standard_relation>
=

> <predicted_activity_value>
6.953114809162289

> <actual_activity_value>
7.031517051446065

> <Publication ID>
nan

> <standard_units>
nM

> hash
3817718728431901872

$$$$
4_
XXILIB    08252103513D 0   0.00000     0.00000

 23 24  0     1  0            999 V2000
    5.3820   -0.1157    4.4452 S   0  0  2  0  0  6           0  0  0
    6.6957   -0.2502    3.8464 O   0  0  0  0  0  2           0  0  0
    5.0872    0.9731    5.3560 O   0  0  0  0  0  2           0  0  0
   -4.5465    0.5575   -1.1095 O   0  0  0  0  0  2           0  0  0
   -2.7511   -0.0034    2.2963 O   0  0  0  0  0  2           0  0  0
   -0.6719   -0.0000    1.1718 N   0  0  0  0  0  3           0  0  0
   -0.6184    0.0023   -1.2040 N   0  0  0  0  0  3           0  0  0
    4.9393   -1.5929    5.1720 N   0  0  0  0  0  3           0  0  0
   -4.1065   -0.0115   -0.1029 N   0  0  0  0  0  3           0  0  0
    1.4051   -0.0000   -0.0000 N   0  0  0  0  0  3           0  0  0
   -2.5800   -0.0108   -2.5038 N   0  0  0  0  0  3           0  0  0
    4.2059   -0.0440    3.1328 C   0  0  0  0  0  4           0  0  0
   -2.0230   -0.0047    1.1153 C   0  0  0  0  0  4           0  0  0
    0.0000    0.0000    0.0000 C   0  0  0  0  0  4           0  0  0
   -1.9745    0.0165   -1.2480 C   0  0  0  0  0  4           0  0  0
   -2.7354   -0.0116   -0.0796 C   0  0  0  0  0  4           0  0  0
    2.3178   -0.0000    1.0576 C   0  0  0  0  0  4           0  0  0
    2.9731    0.5697    3.3368 C   0  0  0  0  0  4           0  0  0
    4.5100   -0.6442    1.9136 C   0  0  0  0  0  4           0  0  0
    2.0361    0.5916    2.2995 C   0  0  0  0  0  4           0  0  0
    3.5680   -0.6165    0.8833 C   0  0  0  0  0  4           0  0  0
   -1.9502    0.0030    3.4778 C   0  0  0  0  0  4           0  0  0
   -2.8776    0.0037    4.6793 C   0  0  0  0  0  4           0  0  0
  1  2  2  0     0  0
  1  3  2  0     0  0
  1  8  1  0     0  0
  1 12  1  0     0  0
  4  9  2  0     0  0
  5 13  1  0     0  0
  5 22  1  0     0  0
  6 13  2  0     0  0
  6 14  1  0     0  0
  7 14  2  0     0  0
  7 15  1  0     0  0
  9 16  1  0     0  0
 10 14  1  0     0  0
 10 17  1  0     0  0
 11 15  1  0     0  0
 12 18  2  0     0  0
 12 19  1  0     0  0
 13 16  1  0     0  0
 15 16  2  0     0  0
 17 20  2  0     0  0
 17 21  1  0     0  0
 18 20  1  0     0  0
 19 21  2  0     0  0
 22 23  1  0     0  0
M  END
> <Compound >
4

> <standard_type>
pIC50

> <# Confs.>
25

> <canonical_smiles>
CCOC1=NC(NC2=CC=C(S(=O)(N)=O)C=C2)=NC(N)=C1N=O

> <standard_relation>
=

> <predicted_activity_value>
6.953114809162289

> <actual_activity_value>
7.031517051446065

> <Publication ID>
nan

> <standard_units>
nM

> hash
3817718728431901872

$$$$
4_
XXILIB    08252103513D 0   0.00000     0.00000

 23 24  0     1  0            999 V2000
    5.4175    0.0346    4.4146 S   0  0  2  0  0  6           0  0  0
    5.1387   -1.1017    5.2708 O   0  0  0  0  0  2           0  0  0
    6.7162    0.1953    3.7904 O   0  0  0  0  0  2           0  0  0
   -4.5465    0.5575   -1.1095 O   0  0  0  0  0  2           0  0  0
   -2.7511   -0.0034    2.2963 O   0  0  0  0  0  2           0  0  0
   -0.6719   -0.0000    1.1718 N   0  0  0  0  0  3           0  0  0
   -0.6184    0.0023   -1.2040 N   0  0  0  0  0  3           0  0  0
    5.0046    1.4722    5.2326 N   0  0  0  0  0  3           0  0  0
   -4.1065   -0.0115   -0.1029 N   0  0  0  0  0  3           0  0  0
    1.4051    0.0000    0.0000 N   0  0  0  0  0  3           0  0  0
   -2.5800   -0.0108   -2.5038 N   0  0  0  0  0  3           0  0  0
    4.2069    0.0418    3.1320 C   0  0  0  0  0  4           0  0  0
   -2.0230   -0.0047    1.1153 C   0  0  0  0  0  4           0  0  0
    0.0000    0.0000    0.0000 C   0  0  0  0  0  4           0  0  0
   -1.9745    0.0165   -1.2480 C   0  0  0  0  0  4           0  0  0
   -2.7354   -0.0116   -0.0796 C   0  0  0  0  0  4           0  0  0
    2.3178    0.0000    1.0576 C   0  0  0  0  0  4           0  0  0
    2.9754   -0.5751    3.3347 C   0  0  0  0  0  4           0  0  0
    4.5158    0.6310    1.9086 C   0  0  0  0  0  4           0  0  0
    2.0361   -0.5916    2.2995 C   0  0  0  0  0  4           0  0  0
    3.5708    0.6101    0.8809 C   0  0  0  0  0  4           0  0  0
   -1.9502    0.0030    3.4778 C   0  0  0  0  0  4           0  0  0
   -2.8776    0.0037    4.6793 C   0  0  0  0  0  4           0  0  0
  1  2  2  0     0  0
  1  3  2  0     0  0
  1  8  1  0     0  0
  1 12  1  0     0  0
  4  9  2  0     0  0
  5 13  1  0     0  0
  5 22  1  0     0  0
  6 13  2  0     0  0
  6 14  1  0     0  0
  7 14  2  0     0  0
  7 15  1  0     0  0
  9 16  1  0     0  0
 10 14  1  0     0  0
 10 17  1  0     0  0
 11 15  1  0     0  0
 12 18  2  0     0  0
 12 19  1  0     0  0
 13 16  1  0     0  0
 15 16  2  0     0  0
 17 20  2  0     0  0
 17 21  1  0     0  0
 18 20  1  0     0  0
 19 21  2  0     0  0
 22 23  1  0     0  0
M  END
> <Compound >
4

> <standard_type>
pIC50

> <# Confs.>
25

> <canonical_smiles>
CCOC1=NC(NC2=CC=C(S(=O)(N)=O)C=C2)=NC(N)=C1N=O

> <standard_relation>
=

> <predicted_activity_value>
6.953114809162289

> <actual_activity_value>
7.031517051446065

> <Publication ID>
nan

> <standard_units>
nM

> hash
3817718728431901872

$$$$
4_
XXILIB    08252103513D 0   0.00000     0.00000

 23 24  0     1  0            999 V2000
    5.4175    0.0346    4.4146 S   0  0  2  0  0  6           0  0  0
    6.2947    1.1674    4.1924 O   0  0  0  0  0  2           0  0  0
    4.7185   -0.1297    5.6742 O   0  0  0  0  0  2           0  0  0
   -4.5465    0.5575   -1.1095 O   0  0  0  0  0  2           0  0  0
   -2.7511   -0.0034    2.2963 O   0  0  0  0  0  2           0  0  0
   -0.6719   -0.0000    1.1718 N   0  0  0  0  0  3           0  0  0
   -0.6184    0.0023   -1.2040 N   0  0  0  0  0  3           0  0  0
    6.2499   -1.4055    4.0410 N   0  0  0  0  0  3           0  0  0
   -4.1065   -0.0115   -0.1029 N   0  0  0  0  0  3           0  0  0
    1.4051    0.0000    0.0000 N   0  0  0  0  0  3           0  0  0
   -2.5800   -0.0108   -2.5038 N   0  0  0  0  0  3           0  0  0
    4.2069    0.0418    3.1320 C   0  0  0  0  0  4           0  0  0
   -2.0230   -0.0047    1.1153 C   0  0  0  0  0  4           0  0  0
    0.0000    0.0000    0.0000 C   0  0  0  0  0  4           0  0  0
   -1.9745    0.0165   -1.2480 C   0  0  0  0  0  4           0  0  0
   -2.7354   -0.0116   -0.0796 C   0  0  0  0  0  4           0  0  0
    2.3178    0.0000    1.0576 C   0  0  0  0  0  4           0  0  0
    2.9754   -0.5751    3.3347 C   0  0  0  0  0  4           0  0  0
    4.5158    0.6310    1.9086 C   0  0  0  0  0  4           0  0  0
    2.0361   -0.5916    2.2995 C   0  0  0  0  0  4           0  0  0
    3.5708    0.6101    0.8809 C   0  0  0  0  0  4           0  0  0
   -1.9502    0.0030    3.4778 C   0  0  0  0  0  4           0  0  0
   -2.8776    0.0037    4.6793 C   0  0  0  0  0  4           0  0  0
  1  2  2  0     0  0
  1  3  2  0     0  0
  1  8  1  0     0  0
  1 12  1  0     0  0
  4  9  2  0     0  0
  5 13  1  0     0  0
  5 22  1  0     0  0
  6 13  2  0     0  0
  6 14  1  0     0  0
  7 14  2  0     0  0
  7 15  1  0     0  0
  9 16  1  0     0  0
 10 14  1  0     0  0
 10 17  1  0     0  0
 11 15  1  0     0  0
 12 18  2  0     0  0
 12 19  1  0     0  0
 13 16  1  0     0  0
 15 16  2  0     0  0
 17 20  2  0     0  0
 17 21  1  0     0  0
 18 20  1  0     0  0
 19 21  2  0     0  0
 22 23  1  0     0  0
M  END
> <Compound >
4

> <standard_type>
pIC50

> <# Confs.>
25

> <canonical_smiles>
CCOC1=NC(NC2=CC=C(S(=O)(N)=O)C=C2)=NC(N)=C1N=O

> <standard_relation>
=

> <predicted_activity_value>
6.953114809162289

> <actual_activity_value>
7.031517051446065

> <Publication ID>
nan

> <standard_units>
nM

> hash
3817718728431901872

$$$$
4_
XXILIB    08252103513D 0   0.00000     0.00000

 23 24  0     1  0            999 V2000
    5.3820    0.1157   -4.4452 S   0  0  2  0  0  6           0  0  0
    6.6957    0.2502   -3.8464 O   0  0  0  0  0  2           0  0  0
    5.0872   -0.9731   -5.3560 O   0  0  0  0  0  2           0  0  0
   -4.5465    0.5575   -1.1095 O   0  0  0  0  0  2           0  0  0
   -2.7511   -0.0034    2.2963 O   0  0  0  0  0  2           0  0  0
   -0.6719   -0.0000    1.1718 N   0  0  0  0  0  3           0  0  0
   -0.6184    0.0023   -1.2040 N   0  0  0  0  0  3           0  0  0
    4.9393    1.5929   -5.1720 N   0  0  0  0  0  3           0  0  0
   -4.1065   -0.0115   -0.1029 N   0  0  0  0  0  3           0  0  0
    1.4051    0.0000    0.0000 N   0  0  0  0  0  3           0  0  0
   -2.5800   -0.0108   -2.5038 N   0  0  0  0  0  3           0  0  0
    4.2059    0.0440   -3.1328 C   0  0  0  0  0  4           0  0  0
   -2.0230   -0.0047    1.1153 C   0  0  0  0  0  4           0  0  0
    0.0000    0.0000    0.0000 C   0  0  0  0  0  4           0  0  0
   -1.9745    0.0165   -1.2480 C   0  0  0  0  0  4           0  0  0
   -2.7354   -0.0116   -0.0796 C   0  0  0  0  0  4           0  0  0
    2.3178    0.0000   -1.0576 C   0  0  0  0  0  4           0  0  0
    2.9731   -0.5697   -3.3368 C   0  0  0  0  0  4           0  0  0
    4.5100    0.6442   -1.9136 C   0  0  0  0  0  4           0  0  0
    2.0361   -0.5916   -2.2995 C   0  0  0  0  0  4           0  0  0
    3.5680    0.6165   -0.8833 C   0  0  0  0  0  4           0  0  0
   -1.9502    0.0030    3.4778 C   0  0  0  0  0  4           0  0  0
   -2.8776    0.0037    4.6793 C   0  0  0  0  0  4           0  0  0
  1  2  2  0     0  0
  1  3  2  0     0  0
  1  8  1  0     0  0
  1 12  1  0     0  0
  4  9  2  0     0  0
  5 13  1  0     0  0
  5 22  1  0     0  0
  6 13  2  0     0  0
  6 14  1  0     0  0
  7 14  2  0     0  0
  7 15  1  0     0  0
  9 16  1  0     0  0
 10 14  1  0     0  0
 10 17  1  0     0  0
 11 15  1  0     0  0
 12 18  2  0     0  0
 12 19  1  0     0  0
 13 16  1  0     0  0
 15 16  2  0     0  0
 17 20  2  0     0  0
 17 21  1  0     0  0
 18 20  1  0     0  0
 19 21  2  0     0  0
 22 23  1  0     0  0
M  END
> <Compound >
4

> <standard_type>
pIC50

> <# Confs.>
25

> <canonical_smiles>
CCOC1=NC(NC2=CC=C(S(=O)(N)=O)C=C2)=NC(N)=C1N=O

> <standard_relation>
=

> <predicted_activity_value>
6.953114809162289

> <actual_activity_value>
7.031517051446065

> <Publication ID>
nan

> <standard_units>
nM

> hash
3817718728431901872

$$$$
4_
XXILIB    08252103513D 0   0.00000     0.00000

 23 24  0     1  0            999 V2000
    5.3820    0.1157   -4.4452 S   0  0  2  0  0  6           0  0  0
    4.6499    0.0166   -5.6927 O   0  0  0  0  0  2           0  0  0
    6.2595    1.2400   -4.1844 O   0  0  0  0  0  2           0  0  0
   -4.5465    0.5575   -1.1095 O   0  0  0  0  0  2           0  0  0
   -2.7511   -0.0034    2.2963 O   0  0  0  0  0  2           0  0  0
   -0.6719   -0.0000    1.1718 N   0  0  0  0  0  3           0  0  0
   -0.6184    0.0023   -1.2040 N   0  0  0  0  0  3           0  0  0
    6.2324   -1.3367   -4.1731 N   0  0  0  0  0  3           0  0  0
   -4.1065   -0.0115   -0.1029 N   0  0  0  0  0  3           0  0  0
    1.4051    0.0000    0.0000 N   0  0  0  0  0  3           0  0  0
   -2.5800   -0.0108   -2.5038 N   0  0  0  0  0  3           0  0  0
    4.2059    0.0440   -3.1328 C   0  0  0  0  0  4           0  0  0
   -2.0230   -0.0047    1.1153 C   0  0  0  0  0  4           0  0  0
    0.0000    0.0000    0.0000 C   0  0  0  0  0  4           0  0  0
   -1.9745    0.0165   -1.2480 C   0  0  0  0  0  4           0  0  0
   -2.7354   -0.0116   -0.0796 C   0  0  0  0  0  4           0  0  0
    2.3178    0.0000   -1.0576 C   0  0  0  0  0  4           0  0  0
    2.9731   -0.5697   -3.3368 C   0  0  0  0  0  4           0  0  0
    4.5100    0.6442   -1.9136 C   0  0  0  0  0  4           0  0  0
    2.0361   -0.5916   -2.2995 C   0  0  0  0  0  4           0  0  0
    3.5680    0.6165   -0.8833 C   0  0  0  0  0  4           0  0  0
   -1.9502    0.0030    3.4778 C   0  0  0  0  0  4           0  0  0
   -2.8776    0.0037    4.6793 C   0  0  0  0  0  4           0  0  0
  1  2  2  0     0  0
  1  3  2  0     0  0
  1  8  1  0     0  0
  1 12  1  0     0  0
  4  9  2  0     0  0
  5 13  1  0     0  0
  5 22  1  0     0  0
  6 13  2  0     0  0
  6 14  1  0     0  0
  7 14  2  0     0  0
  7 15  1  0     0  0
  9 16  1  0     0  0
 10 14  1  0     0  0
 10 17  1  0     0  0
 11 15  1  0     0  0
 12 18  2  0     0  0
 12 19  1  0     0  0
 13 16  1  0     0  0
 15 16  2  0     0  0
 17 20  2  0     0  0
 17 21  1  0     0  0
 18 20  1  0     0  0
 19 21  2  0     0  0
 22 23  1  0     0  0
M  END
> <Compound >
4

> <standard_type>
pIC50

> <# Confs.>
25

> <canonical_smiles>
CCOC1=NC(NC2=CC=C(S(=O)(N)=O)C=C2)=NC(N)=C1N=O

> <standard_relation>
=

> <predicted_activity_value>
6.953114809162289

> <actual_activity_value>
7.031517051446065

> <Publication ID>
nan

> <standard_units>
nM

> hash
3817718728431901872

$$$$
4_
XXILIB    08252103513D 0   0.00000     0.00000

 23 24  0     1  0            999 V2000
    5.4175   -0.0346   -4.4146 S   0  0  2  0  0  6           0  0  0
    5.1387    1.1017   -5.2708 O   0  0  0  0  0  2           0  0  0
    6.7162   -0.1953   -3.7904 O   0  0  0  0  0  2           0  0  0
   -4.5465    0.5575   -1.1095 O   0  0  0  0  0  2           0  0  0
   -2.7511   -0.0034    2.2963 O   0  0  0  0  0  2           0  0  0
   -0.6719   -0.0000    1.1718 N   0  0  0  0  0  3           0  0  0
   -0.6184    0.0023   -1.2040 N   0  0  0  0  0  3           0  0  0
    5.0046   -1.4722   -5.2326 N   0  0  0  0  0  3           0  0  0
   -4.1065   -0.0115   -0.1029 N   0  0  0  0  0  3           0  0  0
    1.4051   -0.0000   -0.0000 N   0  0  0  0  0  3           0  0  0
   -2.5800   -0.0108   -2.5038 N   0  0  0  0  0  3           0  0  0
    4.2069   -0.0418   -3.1320 C   0  0  0  0  0  4           0  0  0
   -2.0230   -0.0047    1.1153 C   0  0  0  0  0  4           0  0  0
    0.0000    0.0000    0.0000 C   0  0  0  0  0  4           0  0  0
   -1.9745    0.0165   -1.2480 C   0  0  0  0  0  4           0  0  0
   -2.7354   -0.0116   -0.0796 C   0  0  0  0  0  4           0  0  0
    2.3178    0.0000   -1.0576 C   0  0  0  0  0  4           0  0  0
    2.9754    0.5751   -3.3347 C   0  0  0  0  0  4           0  0  0
    4.5158   -0.6310   -1.9086 C   0  0  0  0  0  4           0  0  0
    2.0361    0.5916   -2.2995 C   0  0  0  0  0  4           0  0  0
    3.5708   -0.6101   -0.8809 C   0  0  0  0  0  4           0  0  0
   -1.9502    0.0030    3.4778 C   0  0  0  0  0  4           0  0  0
   -2.8776    0.0037    4.6793 C   0  0  0  0  0  4           0  0  0
  1  2  2  0     0  0
  1  3  2  0     0  0
  1  8  1  0     0  0
  1 12  1  0     0  0
  4  9  2  0     0  0
  5 13  1  0     0  0
  5 22  1  0     0  0
  6 13  2  0     0  0
  6 14  1  0     0  0
  7 14  2  0     0  0
  7 15  1  0     0  0
  9 16  1  0     0  0
 10 14  1  0     0  0
 10 17  1  0     0  0
 11 15  1  0     0  0
 12 18  2  0     0  0
 12 19  1  0     0  0
 13 16  1  0     0  0
 15 16  2  0     0  0
 17 20  2  0     0  0
 17 21  1  0     0  0
 18 20  1  0     0  0
 19 21  2  0     0  0
 22 23  1  0     0  0
M  END
> <Compound >
4

> <standard_type>
pIC50

> <# Confs.>
25

> <canonical_smiles>
CCOC1=NC(NC2=CC=C(S(=O)(N)=O)C=C2)=NC(N)=C1N=O

> <standard_relation>
=

> <predicted_activity_value>
6.953114809162289

> <actual_activity_value>
7.031517051446065

> <Publication ID>
nan

> <standard_units>
nM

> hash
3817718728431901872

$$$$
4_
XXILIB    08252103513D 0   0.00000     0.00000

 23 24  0     1  0            999 V2000
    5.4175   -0.0346   -4.4146 S   0  0  2  0  0  6           0  0  0
    6.2947   -1.1674   -4.1924 O   0  0  0  0  0  2           0  0  0
    4.7185    0.1297   -5.6742 O   0  0  0  0  0  2           0  0  0
   -4.5465    0.5575   -1.1095 O   0  0  0  0  0  2           0  0  0
   -2.7511   -0.0034    2.2963 O   0  0  0  0  0  2           0  0  0
   -0.6719   -0.0000    1.1718 N   0  0  0  0  0  3           0  0  0
   -0.6184    0.0023   -1.2040 N   0  0  0  0  0  3           0  0  0
    6.2499    1.4055   -4.0410 N   0  0  0  0  0  3           0  0  0
   -4.1065   -0.0115   -0.1029 N   0  0  0  0  0  3           0  0  0
    1.4051   -0.0000   -0.0000 N   0  0  0  0  0  3           0  0  0
   -2.5800   -0.0108   -2.5038 N   0  0  0  0  0  3           0  0  0
    4.2069   -0.0418   -3.1320 C   0  0  0  0  0  4           0  0  0
   -2.0230   -0.0047    1.1153 C   0  0  0  0  0  4           0  0  0
    0.0000    0.0000    0.0000 C   0  0  0  0  0  4           0  0  0
   -1.9745    0.0165   -1.2480 C   0  0  0  0  0  4           0  0  0
   -2.7354   -0.0116   -0.0796 C   0  0  0  0  0  4           0  0  0
    2.3178    0.0000   -1.0576 C   0  0  0  0  0  4           0  0  0
    2.9754    0.5751   -3.3347 C   0  0  0  0  0  4           0  0  0
    4.5158   -0.6310   -1.9086 C   0  0  0  0  0  4           0  0  0
    2.0361    0.5916   -2.2995 C   0  0  0  0  0  4           0  0  0
    3.5708   -0.6101   -0.8809 C   0  0  0  0  0  4           0  0  0
   -1.9502    0.0030    3.4778 C   0  0  0  0  0  4           0  0  0
   -2.8776    0.0037    4.6793 C   0  0  0  0  0  4           0  0  0
  1  2  2  0     0  0
  1  3  2  0     0  0
  1  8  1  0     0  0
  1 12  1  0     0  0
  4  9  2  0     0  0
  5 13  1  0     0  0
  5 22  1  0     0  0
  6 13  2  0     0  0
  6 14  1  0     0  0
  7 14  2  0     0  0
  7 15  1  0     0  0
  9 16  1  0     0  0
 10 14  1  0     0  0
 10 17  1  0     0  0
 11 15  1  0     0  0
 12 18  2  0     0  0
 12 19  1  0     0  0
 13 16  1  0     0  0
 15 16  2  0     0  0
 17 20  2  0     0  0
 17 21  1  0     0  0
 18 20  1  0     0  0
 19 21  2  0     0  0
 22 23  1  0     0  0
M  END
> <Compound >
4

> <standard_type>
pIC50

> <# Confs.>
25

> <canonical_smiles>
CCOC1=NC(NC2=CC=C(S(=O)(N)=O)C=C2)=NC(N)=C1N=O

> <standard_relation>
=

> <predicted_activity_value>
6.953114809162289

> <actual_activity_value>
7.031517051446065

> <Publication ID>
nan

> <standard_units>
nM

> hash
3817718728431901872

$$$$
4_
XXILIB    08252103513D 0   0.00000     0.00000

 23 24  0     1  0            999 V2000
    5.4150   -0.0468    4.4167 S   0  0  2  0  0  6           0  0  0
    4.7842   -0.6457    5.5767 O   0  0  0  0  0  2           0  0  0
    6.6335   -0.6032    3.8617 O   0  0  0  0  0  2           0  0  0
   -4.5803    0.5692    0.8815 O   0  0  0  0  0  2           0  0  0
   -2.7511   -0.0034    2.2963 O   0  0  0  0  0  2           0  0  0
   -0.6719   -0.0000    1.1718 N   0  0  0  0  0  3           0  0  0
   -0.6184    0.0023   -1.2040 N   0  0  0  0  0  3           0  0  0
    5.6322    1.6217    4.6910 N   0  0  0  0  0  3           0  0  0
   -4.1065   -0.0115   -0.1029 N   0  0  0  0  0  3           0  0  0
    1.4051    0.0000    0.0000 N   0  0  0  0  0  3           0  0  0
   -2.5800   -0.0108   -2.5038 N   0  0  0  0  0  3           0  0  0
    4.2151   -0.0013    3.1249 C   0  0  0  0  0  4           0  0  0
   -2.0230   -0.0047    1.1153 C   0  0  0  0  0  4           0  0  0
    0.0000    0.0000    0.0000 C   0  0  0  0  0  4           0  0  0
   -1.9745    0.0165   -1.2480 C   0  0  0  0  0  4           0  0  0
   -2.7354   -0.0116   -0.0796 C   0  0  0  0  0  4           0  0  0
    2.3178    0.0000    1.0576 C   0  0  0  0  0  4           0  0  0
    2.8581   -0.0031    3.4359 C   0  0  0  0  0  4           0  0  0
    4.6422   -0.0076    1.7995 C   0  0  0  0  0  4           0  0  0
    1.9161    0.0000    2.4031 C   0  0  0  0  0  4           0  0  0
    3.6938   -0.0037    0.7747 C   0  0  0  0  0  4           0  0  0
   -1.9502    0.0030    3.4778 C   0  0  0  0  0  4           0  0  0
   -2.8776    0.0037    4.6793 C   0  0  0  0  0  4           0  0  0
  1  2  2  0     0  0
  1  3  2  0     0  0
  1  8  1  0     0  0
  1 12  1  0     0  0
  4  9  2  0     0  0
  5 13  1  0     0  0
  5 22  1  0     0  0
  6 13  2  0     0  0
  6 14  1  0     0  0
  7 14  2  0     0  0
  7 15  1  0     0  0
  9 16  1  0     0  0
 10 14  1  0     0  0
 10 17  1  0     0  0
 11 15  1  0     0  0
 12 18  2  0     0  0
 12 19  1  0     0  0
 13 16  1  0     0  0
 15 16  2  0     0  0
 17 20  2  0     0  0
 17 21  1  0     0  0
 18 20  1  0     0  0
 19 21  2  0     0  0
 22 23  1  0     0  0
M  END
> <Compound >
4

> <standard_type>
pIC50

> <# Confs.>
25

> <canonical_smiles>
CCOC1=NC(NC2=CC=C(S(=O)(N)=O)C=C2)=NC(N)=C1N=O

> <standard_relation>
=

> <predicted_activity_value>
6.953114809162289

> <actual_activity_value>
7.031517051446065

> <Publication ID>
nan

> <standard_units>
nM

> hash
3817718728431901872

$$$$
4_
XXILIB    08252103513D 0   0.00000     0.00000

 23 24  0     1  0            999 V2000
    5.4150   -0.0468    4.4167 S   0  0  2  0  0  6           0  0  0
    6.6390    0.5296    3.8953 O   0  0  0  0  0  2           0  0  0
    4.7910    0.4870    5.6116 O   0  0  0  0  0  2           0  0  0
   -4.5803    0.5692    0.8815 O   0  0  0  0  0  2           0  0  0
   -2.7511   -0.0034    2.2963 O   0  0  0  0  0  2           0  0  0
   -0.6719   -0.0000    1.1718 N   0  0  0  0  0  3           0  0  0
   -0.6184    0.0023   -1.2040 N   0  0  0  0  0  3           0  0  0
    5.6136   -1.7312    4.5901 N   0  0  0  0  0  3           0  0  0
   -4.1065   -0.0115   -0.1029 N   0  0  0  0  0  3           0  0  0
    1.4051    0.0000    0.0000 N   0  0  0  0  0  3           0  0  0
   -2.5800   -0.0108   -2.5038 N   0  0  0  0  0  3           0  0  0
    4.2151   -0.0013    3.1249 C   0  0  0  0  0  4           0  0  0
   -2.0230   -0.0047    1.1153 C   0  0  0  0  0  4           0  0  0
    0.0000    0.0000    0.0000 C   0  0  0  0  0  4           0  0  0
   -1.9745    0.0165   -1.2480 C   0  0  0  0  0  4           0  0  0
   -2.7354   -0.0116   -0.0796 C   0  0  0  0  0  4           0  0  0
    2.3178    0.0000    1.0576 C   0  0  0  0  0  4           0  0  0
    2.8581   -0.0031    3.4359 C   0  0  0  0  0  4           0  0  0
    4.6422   -0.0076    1.7995 C   0  0  0  0  0  4           0  0  0
    1.9161    0.0000    2.4031 C   0  0  0  0  0  4           0  0  0
    3.6938   -0.0037    0.7747 C   0  0  0  0  0  4           0  0  0
   -1.9502    0.0030    3.4778 C   0  0  0  0  0  4           0  0  0
   -2.8776    0.0037    4.6793 C   0  0  0  0  0  4           0  0  0
  1  2  2  0     0  0
  1  3  2  0     0  0
  1  8  1  0     0  0
  1 12  1  0     0  0
  4  9  2  0     0  0
  5 13  1  0     0  0
  5 22  1  0     0  0
  6 13  2  0     0  0
  6 14  1  0     0  0
  7 14  2  0     0  0
  7 15  1  0     0  0
  9 16  1  0     0  0
 10 14  1  0     0  0
 10 17  1  0     0  0
 11 15  1  0     0  0
 12 18  2  0     0  0
 12 19  1  0     0  0
 13 16  1  0     0  0
 15 16  2  0     0  0
 17 20  2  0     0  0
 17 21  1  0     0  0
 18 20  1  0     0  0
 19 21  2  0     0  0
 22 23  1  0     0  0
M  END
> <Compound >
4

> <standard_type>
pIC50

> <# Confs.>
25

> <canonical_smiles>
CCOC1=NC(NC2=CC=C(S(=O)(N)=O)C=C2)=NC(N)=C1N=O

> <standard_relation>
=

> <predicted_activity_value>
6.953114809162289

> <actual_activity_value>
7.031517051446065

> <Publication ID>
nan

> <standard_units>
nM

> hash
3817718728431901872

$$$$
4_
XXILIB    08252103513D 0   0.00000     0.00000

 23 24  0     1  0            999 V2000
    5.4150   -2.2489    3.8016 S   0  0  2  0  0  6           0  0  0
    6.6390   -1.4891    3.6382 O   0  0  0  0  0  2           0  0  0
    4.7910   -2.3841    5.1033 O   0  0  0  0  0  2           0  0  0
   -4.5467   -0.5922   -1.1028 O   0  0  0  0  0  2           0  0  0
   -2.7511   -0.0034    2.2963 O   0  0  0  0  0  2           0  0  0
   -0.6719   -0.0000    1.1718 N   0  0  0  0  0  3           0  0  0
   -0.6184    0.0023   -1.2040 N   0  0  0  0  0  3           0  0  0
    5.6136   -3.7943    3.1096 N   0  0  0  0  0  3           0  0  0
   -4.1065   -0.0115   -0.1029 N   0  0  0  0  0  3           0  0  0
    1.4051    0.0000    0.0000 N   0  0  0  0  0  3           0  0  0
   -2.5800   -0.0108   -2.5038 N   0  0  0  0  0  3           0  0  0
    4.2151   -1.5636    2.7056 C   0  0  0  0  0  4           0  0  0
   -2.0230   -0.0047    1.1153 C   0  0  0  0  0  4           0  0  0
    0.0000    0.0000    0.0000 C   0  0  0  0  0  4           0  0  0
   -1.9745    0.0165   -1.2480 C   0  0  0  0  0  4           0  0  0
   -2.7354   -0.0116   -0.0796 C   0  0  0  0  0  4           0  0  0
    2.3178   -0.5288    0.9159 C   0  0  0  0  0  4           0  0  0
    2.8581   -1.7207    2.9741 C   0  0  0  0  0  4           0  0  0
    4.6422   -0.9063    1.5546 C   0  0  0  0  0  4           0  0  0
    1.9161   -1.2015    2.0811 C   0  0  0  0  0  4           0  0  0
    3.6938   -0.3905    0.6691 C   0  0  0  0  0  4           0  0  0
   -1.9502    0.0030    3.4778 C   0  0  0  0  0  4           0  0  0
   -2.8776    0.0037    4.6793 C   0  0  0  0  0  4           0  0  0
  1  2  2  0     0  0
  1  3  2  0     0  0
  1  8  1  0     0  0
  1 12  1  0     0  0
  4  9  2  0     0  0
  5 13  1  0     0  0
  5 22  1  0     0  0
  6 13  2  0     0  0
  6 14  1  0     0  0
  7 14  2  0     0  0
  7 15  1  0     0  0
  9 16  1  0     0  0
 10 14  1  0     0  0
 10 17  1  0     0  0
 11 15  1  0     0  0
 12 18  2  0     0  0
 12 19  1  0     0  0
 13 16  1  0     0  0
 15 16  2  0     0  0
 17 20  2  0     0  0
 17 21  1  0     0  0
 18 20  1  0     0  0
 19 21  2  0     0  0
 22 23  1  0     0  0
M  END
> <Compound >
4

> <standard_type>
pIC50

> <# Confs.>
25

> <canonical_smiles>
CCOC1=NC(NC2=CC=C(S(=O)(N)=O)C=C2)=NC(N)=C1N=O

> <standard_relation>
=

> <predicted_activity_value>
6.953114809162289

> <actual_activity_value>
7.031517051446065

> <Publication ID>
nan

> <standard_units>
nM

> hash
3817718728431901872

$$$$
4_
XXILIB    08252103513D 0   0.00000     0.00000

 23 24  0     1  0            999 V2000
    5.4150   -2.2489    3.8016 S   0  0  2  0  0  6           0  0  0
    4.7842   -3.3476    4.5067 O   0  0  0  0  0  2           0  0  0
    6.6335   -2.4532    3.0428 O   0  0  0  0  0  2           0  0  0
   -4.5467   -0.5922   -1.1028 O   0  0  0  0  0  2           0  0  0
   -2.7511   -0.0034    2.2963 O   0  0  0  0  0  2           0  0  0
   -0.6719   -0.0000    1.1718 N   0  0  0  0  0  3           0  0  0
   -0.6184    0.0023   -1.2040 N   0  0  0  0  0  3           0  0  0
    5.6322   -0.9410    4.8734 N   0  0  0  0  0  3           0  0  0
   -4.1065   -0.0115   -0.1029 N   0  0  0  0  0  3           0  0  0
    1.4051    0.0000    0.0000 N   0  0  0  0  0  3           0  0  0
   -2.5800   -0.0108   -2.5038 N   0  0  0  0  0  3           0  0  0
    4.2151   -1.5636    2.7056 C   0  0  0  0  0  4           0  0  0
   -2.0230   -0.0047    1.1153 C   0  0  0  0  0  4           0  0  0
    0.0000    0.0000    0.0000 C   0  0  0  0  0  4           0  0  0
   -1.9745    0.0165   -1.2480 C   0  0  0  0  0  4           0  0  0
   -2.7354   -0.0116   -0.0796 C   0  0  0  0  0  4           0  0  0
    2.3178   -0.5288    0.9159 C   0  0  0  0  0  4           0  0  0
    2.8581   -1.7207    2.9741 C   0  0  0  0  0  4           0  0  0
    4.6422   -0.9063    1.5546 C   0  0  0  0  0  4           0  0  0
    1.9161   -1.2015    2.0811 C   0  0  0  0  0  4           0  0  0
    3.6938   -0.3905    0.6691 C   0  0  0  0  0  4           0  0  0
   -1.9502    0.0030    3.4778 C   0  0  0  0  0  4           0  0  0
   -2.8776    0.0037    4.6793 C   0  0  0  0  0  4           0  0  0
  1  2  2  0     0  0
  1  3  2  0     0  0
  1  8  1  0     0  0
  1 12  1  0     0  0
  4  9  2  0     0  0
  5 13  1  0     0  0
  5 22  1  0     0  0
  6 13  2  0     0  0
  6 14  1  0     0  0
  7 14  2  0     0  0
  7 15  1  0     0  0
  9 16  1  0     0  0
 10 14  1  0     0  0
 10 17  1  0     0  0
 11 15  1  0     0  0
 12 18  2  0     0  0
 12 19  1  0     0  0
 13 16  1  0     0  0
 15 16  2  0     0  0
 17 20  2  0     0  0
 17 21  1  0     0  0
 18 20  1  0     0  0
 19 21  2  0     0  0
 22 23  1  0     0  0
M  END
> <Compound >
4

> <standard_type>
pIC50

> <# Confs.>
25

> <canonical_smiles>
CCOC1=NC(NC2=CC=C(S(=O)(N)=O)C=C2)=NC(N)=C1N=O

> <standard_relation>
=

> <predicted_activity_value>
6.953114809162289

> <actual_activity_value>
7.031517051446065

> <Publication ID>
nan

> <standard_units>
nM

> hash
3817718728431901872

$$$$
4_
XXILIB    08252103513D 0   0.00000     0.00000

 23 24  0     1  0            999 V2000
    5.4175    0.0346    4.4146 S   0  0  2  0  0  6           0  0  0
    5.1387   -1.1017    5.2708 O   0  0  0  0  0  2           0  0  0
    6.7162    0.1953    3.7904 O   0  0  0  0  0  2           0  0  0
   -4.5805   -0.5805    0.8883 O   0  0  0  0  0  2           0  0  0
   -2.7511   -0.0034    2.2963 O   0  0  0  0  0  2           0  0  0
   -0.6719   -0.0000    1.1718 N   0  0  0  0  0  3           0  0  0
   -0.6184    0.0023   -1.2040 N   0  0  0  0  0  3           0  0  0
    5.0046    1.4722    5.2326 N   0  0  0  0  0  3           0  0  0
   -4.1065   -0.0115   -0.1029 N   0  0  0  0  0  3           0  0  0
    1.4051    0.0000    0.0000 N   0  0  0  0  0  3           0  0  0
   -2.5800   -0.0108   -2.5038 N   0  0  0  0  0  3           0  0  0
    4.2069    0.0418    3.1320 C   0  0  0  0  0  4           0  0  0
   -2.0230   -0.0047    1.1153 C   0  0  0  0  0  4           0  0  0
    0.0000    0.0000    0.0000 C   0  0  0  0  0  4           0  0  0
   -1.9745    0.0165   -1.2480 C   0  0  0  0  0  4           0  0  0
   -2.7354   -0.0116   -0.0796 C   0  0  0  0  0  4           0  0  0
    2.3178    0.0000    1.0576 C   0  0  0  0  0  4           0  0  0
    2.9754   -0.5751    3.3347 C   0  0  0  0  0  4           0  0  0
    4.5158    0.6310    1.9086 C   0  0  0  0  0  4           0  0  0
    2.0361   -0.5916    2.2995 C   0  0  0  0  0  4           0  0  0
    3.5708    0.6101    0.8809 C   0  0  0  0  0  4           0  0  0
   -2.1008    0.6531    3.3842 C   0  0  0  0  0  4           0  0  0
   -3.1680    1.2370    4.2920 C   0  0  0  0  0  4           0  0  0
  1  2  2  0     0  0
  1  3  2  0     0  0
  1  8  1  0     0  0
  1 12  1  0     0  0
  4  9  2  0     0  0
  5 13  1  0     0  0
  5 22  1  0     0  0
  6 13  2  0     0  0
  6 14  1  0     0  0
  7 14  2  0     0  0
  7 15  1  0     0  0
  9 16  1  0     0  0
 10 14  1  0     0  0
 10 17  1  0     0  0
 11 15  1  0     0  0
 12 18  2  0     0  0
 12 19  1  0     0  0
 13 16  1  0     0  0
 15 16  2  0     0  0
 17 20  2  0     0  0
 17 21  1  0     0  0
 18 20  1  0     0  0
 19 21  2  0     0  0
 22 23  1  0     0  0
M  END
> <Compound >
4

> <standard_type>
pIC50

> <# Confs.>
25

> <canonical_smiles>
CCOC1=NC(NC2=CC=C(S(=O)(N)=O)C=C2)=NC(N)=C1N=O

> <standard_relation>
=

> <predicted_activity_value>
6.953114809162289

> <actual_activity_value>
7.031517051446065

> <Publication ID>
nan

> <standard_units>
nM

> hash
3817718728431901872

$$$$
4_
XXILIB    08252103513D 0   0.00000     0.00000

 23 24  0     1  0            999 V2000
    5.4175    0.0346    4.4146 S   0  0  2  0  0  6           0  0  0
    6.2947    1.1674    4.1924 O   0  0  0  0  0  2           0  0  0
    4.7185   -0.1297    5.6742 O   0  0  0  0  0  2           0  0  0
   -4.5805   -0.5805    0.8883 O   0  0  0  0  0  2           0  0  0
   -2.7511   -0.0034    2.2963 O   0  0  0  0  0  2           0  0  0
   -0.6719   -0.0000    1.1718 N   0  0  0  0  0  3           0  0  0
   -0.6184    0.0023   -1.2040 N   0  0  0  0  0  3           0  0  0
    6.2499   -1.4055    4.0410 N   0  0  0  0  0  3           0  0  0
   -4.1065   -0.0115   -0.1029 N   0  0  0  0  0  3           0  0  0
    1.4051    0.0000    0.0000 N   0  0  0  0  0  3           0  0  0
   -2.5800   -0.0108   -2.5038 N   0  0  0  0  0  3           0  0  0
    4.2069    0.0418    3.1320 C   0  0  0  0  0  4           0  0  0
   -2.0230   -0.0047    1.1153 C   0  0  0  0  0  4           0  0  0
    0.0000    0.0000    0.0000 C   0  0  0  0  0  4           0  0  0
   -1.9745    0.0165   -1.2480 C   0  0  0  0  0  4           0  0  0
   -2.7354   -0.0116   -0.0796 C   0  0  0  0  0  4           0  0  0
    2.3178    0.0000    1.0576 C   0  0  0  0  0  4           0  0  0
    2.9754   -0.5751    3.3347 C   0  0  0  0  0  4           0  0  0
    4.5158    0.6310    1.9086 C   0  0  0  0  0  4           0  0  0
    2.0361   -0.5916    2.2995 C   0  0  0  0  0  4           0  0  0
    3.5708    0.6101    0.8809 C   0  0  0  0  0  4           0  0  0
   -2.1008    0.6531    3.3842 C   0  0  0  0  0  4           0  0  0
   -3.1680    1.2370    4.2920 C   0  0  0  0  0  4           0  0  0
  1  2  2  0     0  0
  1  3  2  0     0  0
  1  8  1  0     0  0
  1 12  1  0     0  0
  4  9  2  0     0  0
  5 13  1  0     0  0
  5 22  1  0     0  0
  6 13  2  0     0  0
  6 14  1  0     0  0
  7 14  2  0     0  0
  7 15  1  0     0  0
  9 16  1  0     0  0
 10 14  1  0     0  0
 10 17  1  0     0  0
 11 15  1  0     0  0
 12 18  2  0     0  0
 12 19  1  0     0  0
 13 16  1  0     0  0
 15 16  2  0     0  0
 17 20  2  0     0  0
 17 21  1  0     0  0
 18 20  1  0     0  0
 19 21  2  0     0  0
 22 23  1  0     0  0
M  END
> <Compound >
4

> <standard_type>
pIC50

> <# Confs.>
25

> <canonical_smiles>
CCOC1=NC(NC2=CC=C(S(=O)(N)=O)C=C2)=NC(N)=C1N=O

> <standard_relation>
=

> <predicted_activity_value>
6.953114809162289

> <actual_activity_value>
7.031517051446065

> <Publication ID>
nan

> <standard_units>
nM

> hash
3817718728431901872

$$$$
4_
XXILIB    08252103513D 0   0.00000     0.00000

 23 24  0     1  0            999 V2000
    5.4150    2.1678    3.8484 S   0  0  2  0  0  6           0  0  0
    4.7842    2.2292    5.1525 O   0  0  0  0  0  2           0  0  0
    6.6335    1.4085    3.6460 O   0  0  0  0  0  2           0  0  0
   -4.5465    0.5575   -1.1095 O   0  0  0  0  0  2           0  0  0
   -2.7511   -0.0034    2.2963 O   0  0  0  0  0  2           0  0  0
   -0.6719   -0.0000    1.1718 N   0  0  0  0  0  3           0  0  0
   -0.6184    0.0023   -1.2040 N   0  0  0  0  0  3           0  0  0
    5.6322    3.7500    3.2517 N   0  0  0  0  0  3           0  0  0
   -4.1065   -0.0115   -0.1029 N   0  0  0  0  0  3           0  0  0
    1.4051    0.0000   -0.0000 N   0  0  0  0  0  3           0  0  0
   -2.5800   -0.0108   -2.5038 N   0  0  0  0  0  3           0  0  0
    4.2151    1.5614    2.7069 C   0  0  0  0  0  4           0  0  0
   -2.0230   -0.0047    1.1153 C   0  0  0  0  0  4           0  0  0
    0.0000    0.0000    0.0000 C   0  0  0  0  0  4           0  0  0
   -1.9745    0.0165   -1.2480 C   0  0  0  0  0  4           0  0  0
   -2.7354   -0.0116   -0.0796 C   0  0  0  0  0  4           0  0  0
    2.3178    0.5288    0.9159 C   0  0  0  0  0  4           0  0  0
    2.8581    1.7153    2.9772 C   0  0  0  0  0  4           0  0  0
    4.6422    0.8931    1.5622 C   0  0  0  0  0  4           0  0  0
    1.9161    1.2015    2.0811 C   0  0  0  0  0  4           0  0  0
    3.6938    0.3842    0.6728 C   0  0  0  0  0  4           0  0  0
   -2.0965   -0.6487    3.3883 C   0  0  0  0  0  4           0  0  0
   -3.1599   -1.2339    4.2997 C   0  0  0  0  0  4           0  0  0
  1  2  2  0     0  0
  1  3  2  0     0  0
  1  8  1  0     0  0
  1 12  1  0     0  0
  4  9  2  0     0  0
  5 13  1  0     0  0
  5 22  1  0     0  0
  6 13  2  0     0  0
  6 14  1  0     0  0
  7 14  2  0     0  0
  7 15  1  0     0  0
  9 16  1  0     0  0
 10 14  1  0     0  0
 10 17  1  0     0  0
 11 15  1  0     0  0
 12 18  2  0     0  0
 12 19  1  0     0  0
 13 16  1  0     0  0
 15 16  2  0     0  0
 17 20  2  0     0  0
 17 21  1  0     0  0
 18 20  1  0     0  0
 19 21  2  0     0  0
 22 23  1  0     0  0
M  END
> <Compound >
4

> <standard_type>
pIC50

> <# Confs.>
25

> <canonical_smiles>
CCOC1=NC(NC2=CC=C(S(=O)(N)=O)C=C2)=NC(N)=C1N=O

> <standard_relation>
=

> <predicted_activity_value>
6.953114809162289

> <actual_activity_value>
7.031517051446065

> <Publication ID>
nan

> <standard_units>
nM

> hash
3817718728431901872

$$$$
4_
XXILIB    08252103513D 0   0.00000     0.00000

 23 24  0     1  0            999 V2000
    5.4150    2.1678    3.8484 S   0  0  2  0  0  6           0  0  0
    6.6390    2.4063    3.1087 O   0  0  0  0  0  2           0  0  0
    4.7910    3.2275    4.6163 O   0  0  0  0  0  2           0  0  0
   -4.5465    0.5575   -1.1095 O   0  0  0  0  0  2           0  0  0
   -2.7511   -0.0034    2.2963 O   0  0  0  0  0  2           0  0  0
   -0.6719   -0.0000    1.1718 N   0  0  0  0  0  3           0  0  0
   -0.6184    0.0023   -1.2040 N   0  0  0  0  0  3           0  0  0
    5.6136    0.7958    4.8407 N   0  0  0  0  0  3           0  0  0
   -4.1065   -0.0115   -0.1029 N   0  0  0  0  0  3           0  0  0
    1.4051    0.0000   -0.0000 N   0  0  0  0  0  3           0  0  0
   -2.5800   -0.0108   -2.5038 N   0  0  0  0  0  3           0  0  0
    4.2151    1.5614    2.7069 C   0  0  0  0  0  4           0  0  0
   -2.0230   -0.0047    1.1153 C   0  0  0  0  0  4           0  0  0
    0.0000    0.0000    0.0000 C   0  0  0  0  0  4           0  0  0
   -1.9745    0.0165   -1.2480 C   0  0  0  0  0  4           0  0  0
   -2.7354   -0.0116   -0.0796 C   0  0  0  0  0  4           0  0  0
    2.3178    0.5288    0.9159 C   0  0  0  0  0  4           0  0  0
    2.8581    1.7153    2.9772 C   0  0  0  0  0  4           0  0  0
    4.6422    0.8931    1.5622 C   0  0  0  0  0  4           0  0  0
    1.9161    1.2015    2.0811 C   0  0  0  0  0  4           0  0  0
    3.6938    0.3842    0.6728 C   0  0  0  0  0  4           0  0  0
   -2.0965   -0.6487    3.3883 C   0  0  0  0  0  4           0  0  0
   -3.1599   -1.2339    4.2997 C   0  0  0  0  0  4           0  0  0
  1  2  2  0     0  0
  1  3  2  0     0  0
  1  8  1  0     0  0
  1 12  1  0     0  0
  4  9  2  0     0  0
  5 13  1  0     0  0
  5 22  1  0     0  0
  6 13  2  0     0  0
  6 14  1  0     0  0
  7 14  2  0     0  0
  7 15  1  0     0  0
  9 16  1  0     0  0
 10 14  1  0     0  0
 10 17  1  0     0  0
 11 15  1  0     0  0
 12 18  2  0     0  0
 12 19  1  0     0  0
 13 16  1  0     0  0
 15 16  2  0     0  0
 17 20  2  0     0  0
 17 21  1  0     0  0
 18 20  1  0     0  0
 19 21  2  0     0  0
 22 23  1  0     0  0
M  END
> <Compound >
4

> <standard_type>
pIC50

> <# Confs.>
25

> <canonical_smiles>
CCOC1=NC(NC2=CC=C(S(=O)(N)=O)C=C2)=NC(N)=C1N=O

> <standard_relation>
=

> <predicted_activity_value>
6.953114809162289

> <actual_activity_value>
7.031517051446065

> <Publication ID>
nan

> <standard_units>
nM

> hash
3817718728431901872

$$$$
4_
XXILIB    08252103513D 0   0.00000     0.00000

 23 24  0     1  0            999 V2000
    5.4150    0.0468   -4.4167 S   0  0  2  0  0  6           0  0  0
    4.7842    0.6457   -5.5767 O   0  0  0  0  0  2           0  0  0
    6.6335    0.6032   -3.8617 O   0  0  0  0  0  2           0  0  0
   -4.5803    0.5692    0.8815 O   0  0  0  0  0  2           0  0  0
   -2.7511   -0.0034    2.2963 O   0  0  0  0  0  2           0  0  0
   -0.6719   -0.0000    1.1718 N   0  0  0  0  0  3           0  0  0
   -0.6184    0.0023   -1.2040 N   0  0  0  0  0  3           0  0  0
    5.6322   -1.6217   -4.6910 N   0  0  0  0  0  3           0  0  0
   -4.1065   -0.0115   -0.1029 N   0  0  0  0  0  3           0  0  0
    1.4051   -0.0000   -0.0000 N   0  0  0  0  0  3           0  0  0
   -2.5800   -0.0108   -2.5038 N   0  0  0  0  0  3           0  0  0
    4.2151    0.0013   -3.1249 C   0  0  0  0  0  4           0  0  0
   -2.0230   -0.0047    1.1153 C   0  0  0  0  0  4           0  0  0
    0.0000    0.0000    0.0000 C   0  0  0  0  0  4           0  0  0
   -1.9745    0.0165   -1.2480 C   0  0  0  0  0  4           0  0  0
   -2.7354   -0.0116   -0.0796 C   0  0  0  0  0  4           0  0  0
    2.3178    0.0000   -1.0576 C   0  0  0  0  0  4           0  0  0
    2.8581    0.0031   -3.4359 C   0  0  0  0  0  4           0  0  0
    4.6422    0.0076   -1.7995 C   0  0  0  0  0  4           0  0  0
    1.9161    0.0000   -2.4031 C   0  0  0  0  0  4           0  0  0
    3.6938    0.0037   -0.7747 C   0  0  0  0  0  4           0  0  0
   -1.9502    0.0030    3.4778 C   0  0  0  0  0  4           0  0  0
   -2.8776    0.0037    4.6793 C   0  0  0  0  0  4           0  0  0
  1  2  2  0     0  0
  1  3  2  0     0  0
  1  8  1  0     0  0
  1 12  1  0     0  0
  4  9  2  0     0  0
  5 13  1  0     0  0
  5 22  1  0     0  0
  6 13  2  0     0  0
  6 14  1  0     0  0
  7 14  2  0     0  0
  7 15  1  0     0  0
  9 16  1  0     0  0
 10 14  1  0     0  0
 10 17  1  0     0  0
 11 15  1  0     0  0
 12 18  2  0     0  0
 12 19  1  0     0  0
 13 16  1  0     0  0
 15 16  2  0     0  0
 17 20  2  0     0  0
 17 21  1  0     0  0
 18 20  1  0     0  0
 19 21  2  0     0  0
 22 23  1  0     0  0
M  END
> <Compound >
4

> <standard_type>
pIC50

> <# Confs.>
25

> <canonical_smiles>
CCOC1=NC(NC2=CC=C(S(=O)(N)=O)C=C2)=NC(N)=C1N=O

> <standard_relation>
=

> <predicted_activity_value>
6.953114809162289

> <actual_activity_value>
7.031517051446065

> <Publication ID>
nan

> <standard_units>
nM

> hash
3817718728431901872

$$$$
4_
XXILIB    08252103513D 0   0.00000     0.00000

 23 24  0     1  0            999 V2000
    5.4150    0.0468   -4.4167 S   0  0  2  0  0  6           0  0  0
    6.6390   -0.5296   -3.8953 O   0  0  0  0  0  2           0  0  0
    4.7910   -0.4870   -5.6116 O   0  0  0  0  0  2           0  0  0
   -4.5803    0.5692    0.8815 O   0  0  0  0  0  2           0  0  0
   -2.7511   -0.0034    2.2963 O   0  0  0  0  0  2           0  0  0
   -0.6719   -0.0000    1.1718 N   0  0  0  0  0  3           0  0  0
   -0.6184    0.0023   -1.2040 N   0  0  0  0  0  3           0  0  0
    5.6136    1.7312   -4.5901 N   0  0  0  0  0  3           0  0  0
   -4.1065   -0.0115   -0.1029 N   0  0  0  0  0  3           0  0  0
    1.4051   -0.0000   -0.0000 N   0  0  0  0  0  3           0  0  0
   -2.5800   -0.0108   -2.5038 N   0  0  0  0  0  3           0  0  0
    4.2151    0.0013   -3.1249 C   0  0  0  0  0  4           0  0  0
   -2.0230   -0.0047    1.1153 C   0  0  0  0  0  4           0  0  0
    0.0000    0.0000    0.0000 C   0  0  0  0  0  4           0  0  0
   -1.9745    0.0165   -1.2480 C   0  0  0  0  0  4           0  0  0
   -2.7354   -0.0116   -0.0796 C   0  0  0  0  0  4           0  0  0
    2.3178    0.0000   -1.0576 C   0  0  0  0  0  4           0  0  0
    2.8581    0.0031   -3.4359 C   0  0  0  0  0  4           0  0  0
    4.6422    0.0076   -1.7995 C   0  0  0  0  0  4           0  0  0
    1.9161    0.0000   -2.4031 C   0  0  0  0  0  4           0  0  0
    3.6938    0.0037   -0.7747 C   0  0  0  0  0  4           0  0  0
   -1.9502    0.0030    3.4778 C   0  0  0  0  0  4           0  0  0
   -2.8776    0.0037    4.6793 C   0  0  0  0  0  4           0  0  0
  1  2  2  0     0  0
  1  3  2  0     0  0
  1  8  1  0     0  0
  1 12  1  0     0  0
  4  9  2  0     0  0
  5 13  1  0     0  0
  5 22  1  0     0  0
  6 13  2  0     0  0
  6 14  1  0     0  0
  7 14  2  0     0  0
  7 15  1  0     0  0
  9 16  1  0     0  0
 10 14  1  0     0  0
 10 17  1  0     0  0
 11 15  1  0     0  0
 12 18  2  0     0  0
 12 19  1  0     0  0
 13 16  1  0     0  0
 15 16  2  0     0  0
 17 20  2  0     0  0
 17 21  1  0     0  0
 18 20  1  0     0  0
 19 21  2  0     0  0
 22 23  1  0     0  0
M  END
> <Compound >
4

> <standard_type>
pIC50

> <# Confs.>
25

> <canonical_smiles>
CCOC1=NC(NC2=CC=C(S(=O)(N)=O)C=C2)=NC(N)=C1N=O

> <standard_relation>
=

> <predicted_activity_value>
6.953114809162289

> <actual_activity_value>
7.031517051446065

> <Publication ID>
nan

> <standard_units>
nM

> hash
3817718728431901872

$$$$
4_
XXILIB    08252103513D 0   0.00000     0.00000

 23 24  0     1  0            999 V2000
    5.4175    2.1773   -3.8404 S   0  0  2  0  0  6           0  0  0
    5.1387    3.5896   -4.0138 O   0  0  0  0  0  2           0  0  0
    6.7162    1.7260   -3.3802 O   0  0  0  0  0  2           0  0  0
   -4.5467   -0.5922   -1.1028 O   0  0  0  0  0  2           0  0  0
   -2.7511   -0.0034    2.2963 O   0  0  0  0  0  2           0  0  0
   -0.6719   -0.0000    1.1718 N   0  0  0  0  0  3           0  0  0
   -0.6184    0.0023   -1.2040 N   0  0  0  0  0  3           0  0  0
    5.0046    1.3413   -5.2677 N   0  0  0  0  0  3           0  0  0
   -4.1065   -0.0115   -0.1029 N   0  0  0  0  0  3           0  0  0
    1.4051   -0.0000   -0.0000 N   0  0  0  0  0  3           0  0  0
   -2.5800   -0.0108   -2.5038 N   0  0  0  0  0  3           0  0  0
    4.2069    1.5298   -2.7333 C   0  0  0  0  0  4           0  0  0
   -2.0230   -0.0047    1.1153 C   0  0  0  0  0  4           0  0  0
    0.0000    0.0000    0.0000 C   0  0  0  0  0  4           0  0  0
   -1.9745    0.0165   -1.2480 C   0  0  0  0  0  4           0  0  0
   -2.7354   -0.0116   -0.0796 C   0  0  0  0  0  4           0  0  0
    2.3178    0.5288   -0.9159 C   0  0  0  0  0  4           0  0  0
    2.9754    2.1654   -2.6004 C   0  0  0  0  0  4           0  0  0
    4.5158    0.4079   -1.9684 C   0  0  0  0  0  4           0  0  0
    2.0361    1.6621   -1.6957 C   0  0  0  0  0  4           0  0  0
    3.5708   -0.0879   -1.0679 C   0  0  0  0  0  4           0  0  0
   -1.9502    0.0030    3.4778 C   0  0  0  0  0  4           0  0  0
   -2.8776    0.0037    4.6793 C   0  0  0  0  0  4           0  0  0
  1  2  2  0     0  0
  1  3  2  0     0  0
  1  8  1  0     0  0
  1 12  1  0     0  0
  4  9  2  0     0  0
  5 13  1  0     0  0
  5 22  1  0     0  0
  6 13  2  0     0  0
  6 14  1  0     0  0
  7 14  2  0     0  0
  7 15  1  0     0  0
  9 16  1  0     0  0
 10 14  1  0     0  0
 10 17  1  0     0  0
 11 15  1  0     0  0
 12 18  2  0     0  0
 12 19  1  0     0  0
 13 16  1  0     0  0
 15 16  2  0     0  0
 17 20  2  0     0  0
 17 21  1  0     0  0
 18 20  1  0     0  0
 19 21  2  0     0  0
 22 23  1  0     0  0
M  END
> <Compound >
4

> <standard_type>
pIC50

> <# Confs.>
25

> <canonical_smiles>
CCOC1=NC(NC2=CC=C(S(=O)(N)=O)C=C2)=NC(N)=C1N=O

> <standard_relation>
=

> <predicted_activity_value>
6.953114809162289

> <actual_activity_value>
7.031517051446065

> <Publication ID>
nan

> <standard_units>
nM

> hash
3817718728431901872

$$$$
4_
XXILIB    08252103513D 0   0.00000     0.00000

 23 24  0     1  0            999 V2000
    5.4175   -2.1773    3.8404 S   0  0  2  0  0  6           0  0  0
    5.1387   -3.5896    4.0138 O   0  0  0  0  0  2           0  0  0
    6.7162   -1.7260    3.3802 O   0  0  0  0  0  2           0  0  0
   -4.5465    0.5575   -1.1095 O   0  0  0  0  0  2           0  0  0
   -2.7511   -0.0034    2.2963 O   0  0  0  0  0  2           0  0  0
   -0.6719   -0.0000    1.1718 N   0  0  0  0  0  3           0  0  0
   -0.6184    0.0023   -1.2040 N   0  0  0  0  0  3           0  0  0
    5.0046   -1.3413    5.2677 N   0  0  0  0  0  3           0  0  0
   -4.1065   -0.0115   -0.1029 N   0  0  0  0  0  3           0  0  0
    1.4051    0.0000    0.0000 N   0  0  0  0  0  3           0  0  0
   -2.5800   -0.0108   -2.5038 N   0  0  0  0  0  3           0  0  0
    4.2069   -1.5298    2.7333 C   0  0  0  0  0  4           0  0  0
   -2.0230   -0.0047    1.1153 C   0  0  0  0  0  4           0  0  0
    0.0000    0.0000    0.0000 C   0  0  0  0  0  4           0  0  0
   -1.9745    0.0165   -1.2480 C   0  0  0  0  0  4           0  0  0
   -2.7354   -0.0116   -0.0796 C   0  0  0  0  0  4           0  0  0
    2.3178   -0.5288    0.9159 C   0  0  0  0  0  4           0  0  0
    2.9754   -2.1654    2.6004 C   0  0  0  0  0  4           0  0  0
    4.5158   -0.4079    1.9684 C   0  0  0  0  0  4           0  0  0
    2.0361   -1.6621    1.6957 C   0  0  0  0  0  4           0  0  0
    3.5708    0.0879    1.0679 C   0  0  0  0  0  4           0  0  0
   -2.1008    0.6531    3.3842 C   0  0  0  0  0  4           0  0  0
   -3.1680    1.2370    4.2920 C   0  0  0  0  0  4           0  0  0
  1  2  2  0     0  0
  1  3  2  0     0  0
  1  8  1  0     0  0
  1 12  1  0     0  0
  4  9  2  0     0  0
  5 13  1  0     0  0
  5 22  1  0     0  0
  6 13  2  0     0  0
  6 14  1  0     0  0
  7 14  2  0     0  0
  7 15  1  0     0  0
  9 16  1  0     0  0
 10 14  1  0     0  0
 10 17  1  0     0  0
 11 15  1  0     0  0
 12 18  2  0     0  0
 12 19  1  0     0  0
 13 16  1  0     0  0
 15 16  2  0     0  0
 17 20  2  0     0  0
 17 21  1  0     0  0
 18 20  1  0     0  0
 19 21  2  0     0  0
 22 23  1  0     0  0
M  END
> <Compound >
4

> <standard_type>
pIC50

> <# Confs.>
25

> <canonical_smiles>
CCOC1=NC(NC2=CC=C(S(=O)(N)=O)C=C2)=NC(N)=C1N=O

> <standard_relation>
=

> <predicted_activity_value>
6.953114809162289

> <actual_activity_value>
7.031517051446065

> <Publication ID>
nan

> <standard_units>
nM

> hash
3817718728431901872

$$$$
4_
XXILIB    08252103513D 0   0.00000     0.00000

 23 24  0     1  0            999 V2000
    5.3820    2.1224    3.9075 S   0  0  2  0  0  6           0  0  0
    4.6499    2.8319    4.9383 O   0  0  0  0  0  2           0  0  0
    6.2595    1.0183    4.2438 O   0  0  0  0  0  2           0  0  0
   -4.5803    0.5692    0.8815 O   0  0  0  0  0  2           0  0  0
   -2.7511   -0.0034    2.2963 O   0  0  0  0  0  2           0  0  0
   -0.6719   -0.0000    1.1718 N   0  0  0  0  0  3           0  0  0
   -0.6184    0.0023   -1.2040 N   0  0  0  0  0  3           0  0  0
    6.2324    3.2442    2.9457 N   0  0  0  0  0  3           0  0  0
   -4.1065   -0.0115   -0.1029 N   0  0  0  0  0  3           0  0  0
    1.4051   -0.0000   -0.0000 N   0  0  0  0  0  3           0  0  0
   -2.5800   -0.0108   -2.5038 N   0  0  0  0  0  3           0  0  0
    4.2059    1.5283    2.7351 C   0  0  0  0  0  4           0  0  0
   -2.0230   -0.0047    1.1153 C   0  0  0  0  0  4           0  0  0
    0.0000    0.0000    0.0000 C   0  0  0  0  0  4           0  0  0
   -1.9745    0.0165   -1.2480 C   0  0  0  0  0  4           0  0  0
   -2.7354   -0.0116   -0.0796 C   0  0  0  0  0  4           0  0  0
    2.3178    0.5288    0.9159 C   0  0  0  0  0  4           0  0  0
    2.9731    2.1617    2.6049 C   0  0  0  0  0  4           0  0  0
    4.5100    0.3989    1.9793 C   0  0  0  0  0  4           0  0  0
    2.0361    1.6621    1.6957 C   0  0  0  0  0  4           0  0  0
    3.5680   -0.0922    1.0732 C   0  0  0  0  0  4           0  0  0
   -1.9502    0.0030    3.4778 C   0  0  0  0  0  4           0  0  0
   -2.8776    0.0037    4.6793 C   0  0  0  0  0  4           0  0  0
  1  2  2  0     0  0
  1  3  2  0     0  0
  1  8  1  0     0  0
  1 12  1  0     0  0
  4  9  2  0     0  0
  5 13  1  0     0  0
  5 22  1  0     0  0
  6 13  2  0     0  0
  6 14  1  0     0  0
  7 14  2  0     0  0
  7 15  1  0     0  0
  9 16  1  0     0  0
 10 14  1  0     0  0
 10 17  1  0     0  0
 11 15  1  0     0  0
 12 18  2  0     0  0
 12 19  1  0     0  0
 13 16  1  0     0  0
 15 16  2  0     0  0
 17 20  2  0     0  0
 17 21  1  0     0  0
 18 20  1  0     0  0
 19 21  2  0     0  0
 22 23  1  0     0  0
M  END
> <Compound >
4

> <standard_type>
pIC50

> <# Confs.>
25

> <canonical_smiles>
CCOC1=NC(NC2=CC=C(S(=O)(N)=O)C=C2)=NC(N)=C1N=O

> <standard_relation>
=

> <predicted_activity_value>
6.953114809162289

> <actual_activity_value>
7.031517051446065

> <Publication ID>
nan

> <standard_units>
nM

> hash
3817718728431901872

$$$$
4_
XXILIB    08252103513D 0   0.00000     0.00000

 23 24  0     1  0            999 V2000
    5.3820    2.1224    3.9075 S   0  0  2  0  0  6           0  0  0
    6.6957    1.7065    3.4562 O   0  0  0  0  0  2           0  0  0
    5.0872    3.5208    4.1519 O   0  0  0  0  0  2           0  0  0
   -4.5803    0.5692    0.8815 O   0  0  0  0  0  2           0  0  0
   -2.7511   -0.0034    2.2963 O   0  0  0  0  0  2           0  0  0
   -0.6719   -0.0000    1.1718 N   0  0  0  0  0  3           0  0  0
   -0.6184    0.0023   -1.2040 N   0  0  0  0  0  3           0  0  0
    4.9393    1.2065    5.2755 N   0  0  0  0  0  3           0  0  0
   -4.1065   -0.0115   -0.1029 N   0  0  0  0  0  3           0  0  0
    1.4051   -0.0000   -0.0000 N   0  0  0  0  0  3           0  0  0
   -2.5800   -0.0108   -2.5038 N   0  0  0  0  0  3           0  0  0
    4.2059    1.5283    2.7351 C   0  0  0  0  0  4           0  0  0
   -2.0230   -0.0047    1.1153 C   0  0  0  0  0  4           0  0  0
    0.0000    0.0000    0.0000 C   0  0  0  0  0  4           0  0  0
   -1.9745    0.0165   -1.2480 C   0  0  0  0  0  4           0  0  0
   -2.7354   -0.0116   -0.0796 C   0  0  0  0  0  4           0  0  0
    2.3178    0.5288    0.9159 C   0  0  0  0  0  4           0  0  0
    2.9731    2.1617    2.6049 C   0  0  0  0  0  4           0  0  0
    4.5100    0.3989    1.9793 C   0  0  0  0  0  4           0  0  0
    2.0361    1.6621    1.6957 C   0  0  0  0  0  4           0  0  0
    3.5680   -0.0922    1.0732 C   0  0  0  0  0  4           0  0  0
   -1.9502    0.0030    3.4778 C   0  0  0  0  0  4           0  0  0
   -2.8776    0.0037    4.6793 C   0  0  0  0  0  4           0  0  0
  1  2  2  0     0  0
  1  3  2  0     0  0
  1  8  1  0     0  0
  1 12  1  0     0  0
  4  9  2  0     0  0
  5 13  1  0     0  0
  5 22  1  0     0  0
  6 13  2  0     0  0
  6 14  1  0     0  0
  7 14  2  0     0  0
  7 15  1  0     0  0
  9 16  1  0     0  0
 10 14  1  0     0  0
 10 17  1  0     0  0
 11 15  1  0     0  0
 12 18  2  0     0  0
 12 19  1  0     0  0
 13 16  1  0     0  0
 15 16  2  0     0  0
 17 20  2  0     0  0
 17 21  1  0     0  0
 18 20  1  0     0  0
 19 21  2  0     0  0
 22 23  1  0     0  0
M  END
> <Compound >
4

> <standard_type>
pIC50

> <# Confs.>
25

> <canonical_smiles>
CCOC1=NC(NC2=CC=C(S(=O)(N)=O)C=C2)=NC(N)=C1N=O

> <standard_relation>
=

> <predicted_activity_value>
6.953114809162289

> <actual_activity_value>
7.031517051446065

> <Publication ID>
nan

> <standard_units>
nM

> hash
3817718728431901872

$$$$
4_
XXILIB    08252103513D 0   0.00000     0.00000

 23 24  0     1  0            999 V2000
    5.4175   -2.1773    3.8404 S   0  0  2  0  0  6           0  0  0
    6.2947   -1.0852    4.2144 O   0  0  0  0  0  2           0  0  0
    4.7185   -2.9494    4.8491 O   0  0  0  0  0  2           0  0  0
   -4.5465    0.5575   -1.1095 O   0  0  0  0  0  2           0  0  0
   -2.7511   -0.0034    2.2963 O   0  0  0  0  0  2           0  0  0
   -0.6719   -0.0000    1.1718 N   0  0  0  0  0  3           0  0  0
   -0.6184    0.0023   -1.2040 N   0  0  0  0  0  3           0  0  0
    6.2499   -3.2377    2.7969 N   0  0  0  0  0  3           0  0  0
   -4.1065   -0.0115   -0.1029 N   0  0  0  0  0  3           0  0  0
    1.4051    0.0000    0.0000 N   0  0  0  0  0  3           0  0  0
   -2.5800   -0.0108   -2.5038 N   0  0  0  0  0  3           0  0  0
    4.2069   -1.5298    2.7333 C   0  0  0  0  0  4           0  0  0
   -2.0230   -0.0047    1.1153 C   0  0  0  0  0  4           0  0  0
    0.0000    0.0000    0.0000 C   0  0  0  0  0  4           0  0  0
   -1.9745    0.0165   -1.2480 C   0  0  0  0  0  4           0  0  0
   -2.7354   -0.0116   -0.0796 C   0  0  0  0  0  4           0  0  0
    2.3178   -0.5288    0.9159 C   0  0  0  0  0  4           0  0  0
    2.9754   -2.1654    2.6004 C   0  0  0  0  0  4           0  0  0
    4.5158   -0.4079    1.9684 C   0  0  0  0  0  4           0  0  0
    2.0361   -1.6621    1.6957 C   0  0  0  0  0  4           0  0  0
    3.5708    0.0879    1.0679 C   0  0  0  0  0  4           0  0  0
   -2.1008    0.6531    3.3842 C   0  0  0  0  0  4           0  0  0
   -3.1680    1.2370    4.2920 C   0  0  0  0  0  4           0  0  0
  1  2  2  0     0  0
  1  3  2  0     0  0
  1  8  1  0     0  0
  1 12  1  0     0  0
  4  9  2  0     0  0
  5 13  1  0     0  0
  5 22  1  0     0  0
  6 13  2  0     0  0
  6 14  1  0     0  0
  7 14  2  0     0  0
  7 15  1  0     0  0
  9 16  1  0     0  0
 10 14  1  0     0  0
 10 17  1  0     0  0
 11 15  1  0     0  0
 12 18  2  0     0  0
 12 19  1  0     0  0
 13 16  1  0     0  0
 15 16  2  0     0  0
 17 20  2  0     0  0
 17 21  1  0     0  0
 18 20  1  0     0  0
 19 21  2  0     0  0
 22 23  1  0     0  0
M  END
> <Compound >
4

> <standard_type>
pIC50

> <# Confs.>
25

> <canonical_smiles>
CCOC1=NC(NC2=CC=C(S(=O)(N)=O)C=C2)=NC(N)=C1N=O

> <standard_relation>
=

> <predicted_activity_value>
6.953114809162289

> <actual_activity_value>
7.031517051446065

> <Publication ID>
nan

> <standard_units>
nM

> hash
3817718728431901872

$$$$
4_
XXILIB    08252103513D 0   0.00000     0.00000

 23 24  0     1  0            999 V2000
    5.3820   -2.1224   -3.9075 S   0  0  2  0  0  6           0  0  0
    6.6957   -1.7065   -3.4562 O   0  0  0  0  0  2           0  0  0
    5.0872   -3.5208   -4.1519 O   0  0  0  0  0  2           0  0  0
   -4.5467   -0.5922   -1.1028 O   0  0  0  0  0  2           0  0  0
   -2.7511   -0.0034    2.2963 O   0  0  0  0  0  2           0  0  0
   -0.6719   -0.0000    1.1718 N   0  0  0  0  0  3           0  0  0
   -0.6184    0.0023   -1.2040 N   0  0  0  0  0  3           0  0  0
    4.9393   -1.2065   -5.2755 N   0  0  0  0  0  3           0  0  0
   -4.1065   -0.0115   -0.1029 N   0  0  0  0  0  3           0  0  0
    1.4051    0.0000    0.0000 N   0  0  0  0  0  3           0  0  0
   -2.5800   -0.0108   -2.5038 N   0  0  0  0  0  3           0  0  0
    4.2059   -1.5283   -2.7351 C   0  0  0  0  0  4           0  0  0
   -2.0230   -0.0047    1.1153 C   0  0  0  0  0  4           0  0  0
    0.0000    0.0000    0.0000 C   0  0  0  0  0  4           0  0  0
   -1.9745    0.0165   -1.2480 C   0  0  0  0  0  4           0  0  0
   -2.7354   -0.0116   -0.0796 C   0  0  0  0  0  4           0  0  0
    2.3178   -0.5288   -0.9159 C   0  0  0  0  0  4           0  0  0
    2.9731   -2.1617   -2.6049 C   0  0  0  0  0  4           0  0  0
    4.5100   -0.3989   -1.9793 C   0  0  0  0  0  4           0  0  0
    2.0361   -1.6621   -1.6957 C   0  0  0  0  0  4           0  0  0
    3.5680    0.0922   -1.0732 C   0  0  0  0  0  4           0  0  0
   -1.9502    0.0030    3.4778 C   0  0  0  0  0  4           0  0  0
   -2.8776    0.0037    4.6793 C   0  0  0  0  0  4           0  0  0
  1  2  2  0     0  0
  1  3  2  0     0  0
  1  8  1  0     0  0
  1 12  1  0     0  0
  4  9  2  0     0  0
  5 13  1  0     0  0
  5 22  1  0     0  0
  6 13  2  0     0  0
  6 14  1  0     0  0
  7 14  2  0     0  0
  7 15  1  0     0  0
  9 16  1  0     0  0
 10 14  1  0     0  0
 10 17  1  0     0  0
 11 15  1  0     0  0
 12 18  2  0     0  0
 12 19  1  0     0  0
 13 16  1  0     0  0
 15 16  2  0     0  0
 17 20  2  0     0  0
 17 21  1  0     0  0
 18 20  1  0     0  0
 19 21  2  0     0  0
 22 23  1  0     0  0
M  END
> <Compound >
4

> <standard_type>
pIC50

> <# Confs.>
25

> <canonical_smiles>
CCOC1=NC(NC2=CC=C(S(=O)(N)=O)C=C2)=NC(N)=C1N=O

> <standard_relation>
=

> <predicted_activity_value>
6.953114809162289

> <actual_activity_value>
7.031517051446065

> <Publication ID>
nan

> <standard_units>
nM

> hash
3817718728431901872

$$$$
4_
XXILIB    08252103513D 0   0.00000     0.00000

 23 24  0     1  0            999 V2000
    5.3820   -0.1157    4.4452 S   0  0  2  0  0  6           0  0  0
    6.6957   -0.2502    3.8464 O   0  0  0  0  0  2           0  0  0
    5.0872    0.9731    5.3560 O   0  0  0  0  0  2           0  0  0
   -4.5805   -0.5805    0.8883 O   0  0  0  0  0  2           0  0  0
   -2.7511   -0.0034    2.2963 O   0  0  0  0  0  2           0  0  0
   -0.6719   -0.0000    1.1718 N   0  0  0  0  0  3           0  0  0
   -0.6184    0.0023   -1.2040 N   0  0  0  0  0  3           0  0  0
    4.9393   -1.5929    5.1720 N   0  0  0  0  0  3           0  0  0
   -4.1065   -0.0115   -0.1029 N   0  0  0  0  0  3           0  0  0
    1.4051   -0.0000   -0.0000 N   0  0  0  0  0  3           0  0  0
   -2.5800   -0.0108   -2.5038 N   0  0  0  0  0  3           0  0  0
    4.2059   -0.0440    3.1328 C   0  0  0  0  0  4           0  0  0
   -2.0230   -0.0047    1.1153 C   0  0  0  0  0  4           0  0  0
    0.0000    0.0000    0.0000 C   0  0  0  0  0  4           0  0  0
   -1.9745    0.0165   -1.2480 C   0  0  0  0  0  4           0  0  0
   -2.7354   -0.0116   -0.0796 C   0  0  0  0  0  4           0  0  0
    2.3178   -0.0000    1.0576 C   0  0  0  0  0  4           0  0  0
    2.9731    0.5697    3.3368 C   0  0  0  0  0  4           0  0  0
    4.5100   -0.6442    1.9136 C   0  0  0  0  0  4           0  0  0
    2.0361    0.5916    2.2995 C   0  0  0  0  0  4           0  0  0
    3.5680   -0.6165    0.8833 C   0  0  0  0  0  4           0  0  0
   -1.9502    0.0030    3.4778 C   0  0  0  0  0  4           0  0  0
   -1.6889    1.4470    3.8658 C   0  0  0  0  0  4           0  0  0
  1  2  2  0     0  0
  1  3  2  0     0  0
  1  8  1  0     0  0
  1 12  1  0     0  0
  4  9  2  0     0  0
  5 13  1  0     0  0
  5 22  1  0     0  0
  6 13  2  0     0  0
  6 14  1  0     0  0
  7 14  2  0     0  0
  7 15  1  0     0  0
  9 16  1  0     0  0
 10 14  1  0     0  0
 10 17  1  0     0  0
 11 15  1  0     0  0
 12 18  2  0     0  0
 12 19  1  0     0  0
 13 16  1  0     0  0
 15 16  2  0     0  0
 17 20  2  0     0  0
 17 21  1  0     0  0
 18 20  1  0     0  0
 19 21  2  0     0  0
 22 23  1  0     0  0
M  END
> <Compound >
4

> <standard_type>
pIC50

> <# Confs.>
25

> <canonical_smiles>
CCOC1=NC(NC2=CC=C(S(=O)(N)=O)C=C2)=NC(N)=C1N=O

> <standard_relation>
=

> <predicted_activity_value>
6.953114809162289

> <actual_activity_value>
7.031517051446065

> <Publication ID>
nan

> <standard_units>
nM

> hash
3817718728431901872

$$$$
12_
XXILIB    08252103513D 0   0.00000     0.00000

 27 29  0     1  0            999 V2000
    0.2879   -2.2222   -2.6650 O   0  0  0  0  0  2           0  0  0
    1.3872   -0.0000    0.0000 O   0  0  0  0  0  2           0  0  0
   -1.0045    0.0095    7.6726 O   0  0  0  0  0  2           0  0  0
   -0.6533   -0.0000    1.1838 N   0  0  0  0  0  3           0  0  0
   -2.7097    0.0098   -0.0006 N   0  0  0  0  0  3           0  0  0
    0.5988   -0.9696   -3.1866 N   0  0  0  0  0  3           0  0  0
   -2.7277    0.0152    2.3509 N   0  0  0  0  0  3           0  0  0
   -2.8199    0.0363   -2.3398 N   0  0  0  0  0  3           0  0  0
    0.0000    0.0000    0.0000 C   0  0  0  0  0  4           0  0  0
   -1.4960    0.0563    6.3929 C   0  0  0  0  0  4           0  0  0
   -2.0025    0.0074    1.1522 C   0  0  0  0  0  4           0  0  0
   -2.0470   -0.0081   -1.1850 C   0  0  0  0  0  4           0  0  0
   -2.2954    0.0169    3.6794 C   0  0  0  0  0  4           0  0  0
   -0.6544    0.0002   -1.2262 C   0  0  0  0  0  4           0  0  0
   -2.6941    0.6570    6.0036 C   0  0  0  0  0  4           0  0  0
   -0.7001   -0.5612    5.4251 C   0  0  0  0  0  4           0  0  0
   -3.0857    0.6357    4.6599 C   0  0  0  0  0  4           0  0  0
   -1.0946   -0.5813    4.0837 C   0  0  0  0  0  4           0  0  0
    1.9738   -0.0000    1.3009 C   0  0  0  0  0  4           0  0  0
   -1.9073    0.6723    8.5582 C   0  0  0  0  0  4           0  0  0
    0.1372    0.0111   -2.4692 C   0  0  0  0  0  4           0  0  0
    3.4930   -0.0000    1.1538 C   0  0  2  0  0  4           0  0  0
    3.9841   -1.2398    0.3871 C   0  0  0  0  0  4           0  0  0
    4.1634    0.0886    2.5317 C   0  0  0  0  0  4           0  0  0
    5.5076   -1.2774    0.2884 C   0  0  0  0  0  4           0  0  0
    5.6860    0.0501    2.4258 C   0  0  0  0  0  4           0  0  0
    6.1653   -1.1796    1.6611 C   0  0  0  0  0  4           0  0  0
  1  6  1  0     0  0
  2  9  1  0     0  0
  2 19  1  0     0  0
  3 10  1  0     0  0
  3 20  1  0     0  0
  4  9  2  0     0  0
  4 11  1  0     0  0
  5 11  2  0     0  0
  5 12  1  0     0  0
  6 21  2  0     0  0
  7 11  1  0     0  0
  7 13  1  0     0  0
  8 12  1  0     0  0
  9 14  1  0     0  0
 10 15  2  0     0  0
 10 16  1  0     0  0
 12 14  2  0     0  0
 13 17  2  0     0  0
 13 18  1  0     0  0
 14 21  1  0     0  0
 15 17  1  0     0  0
 16 18  2  0     0  0
 19 22  1  0     0  0
 22 23  1  0     0  0
 22 24  1  0     0  0
 23 25  1  0     0  0
 24 26  1  0     0  0
 25 27  1  0     0  0
 26 27  1  0     0  0
M  END
> <Compound >
12

> <standard_type>
pIC50

> <# Confs.>
25

> <canonical_smiles>
NC1=C(/C([H])=N/O)C(OCC2CCCCC2)=NC(NC3=CC=C(OC)C=C3)=N1

> <standard_relation>
=

> <predicted_activity_value>
5.6118987984294835

> <actual_activity_value>
5.080921907623926

> <Publication ID>
nan

> <standard_units>
nM

> hash
18056919525170555622

$$$$
12_
XXILIB    08252103513D 0   0.00000     0.00000

 27 29  0     1  0            999 V2000
    0.2879   -2.2222   -2.6650 O   0  0  0  0  0  2           0  0  0
    1.3872   -0.0000    0.0000 O   0  0  0  0  0  2           0  0  0
   -0.9902    0.0089    7.6679 O   0  0  0  0  0  2           0  0  0
   -0.6533   -0.0000    1.1838 N   0  0  0  0  0  3           0  0  0
   -2.7097    0.0098   -0.0006 N   0  0  0  0  0  3           0  0  0
    0.5988   -0.9696   -3.1866 N   0  0  0  0  0  3           0  0  0
   -2.7277    0.0152    2.3509 N   0  0  0  0  0  3           0  0  0
   -2.8199    0.0363   -2.3398 N   0  0  0  0  0  3           0  0  0
    0.0000    0.0000    0.0000 C   0  0  0  0  0  4           0  0  0
   -1.4877   -0.0304    6.3903 C   0  0  0  0  0  4           0  0  0
   -2.0025    0.0074    1.1522 C   0  0  0  0  0  4           0  0  0
   -2.0470   -0.0081   -1.1850 C   0  0  0  0  0  4           0  0  0
   -2.2954    0.0169    3.6794 C   0  0  0  0  0  4           0  0  0
   -0.6544    0.0002   -1.2262 C   0  0  0  0  0  4           0  0  0
   -2.6963   -0.6129    6.0060 C   0  0  0  0  0  4           0  0  0
   -0.6867    0.5752    5.4191 C   0  0  0  0  0  4           0  0  0
   -3.0925   -0.5868    4.6637 C   0  0  0  0  0  4           0  0  0
   -1.0851    0.5989    4.0790 C   0  0  0  0  0  4           0  0  0
    1.9738   -0.0000    1.3009 C   0  0  0  0  0  4           0  0  0
   -1.8991   -0.6401    8.5573 C   0  0  0  0  0  4           0  0  0
    0.1372    0.0111   -2.4692 C   0  0  0  0  0  4           0  0  0
    3.4930   -0.0000    1.1538 C   0  0  2  0  0  4           0  0  0
    3.9841   -1.2398    0.3871 C   0  0  0  0  0  4           0  0  0
    4.1634    0.0886    2.5317 C   0  0  0  0  0  4           0  0  0
    5.5076   -1.2774    0.2884 C   0  0  0  0  0  4           0  0  0
    5.6860    0.0501    2.4258 C   0  0  0  0  0  4           0  0  0
    6.1653   -1.1796    1.6611 C   0  0  0  0  0  4           0  0  0
  1  6  1  0     0  0
  2  9  1  0     0  0
  2 19  1  0     0  0
  3 10  1  0     0  0
  3 20  1  0     0  0
  4  9  2  0     0  0
  4 11  1  0     0  0
  5 11  2  0     0  0
  5 12  1  0     0  0
  6 21  2  0     0  0
  7 11  1  0     0  0
  7 13  1  0     0  0
  8 12  1  0     0  0
  9 14  1  0     0  0
 10 15  2  0     0  0
 10 16  1  0     0  0
 12 14  2  0     0  0
 13 17  2  0     0  0
 13 18  1  0     0  0
 14 21  1  0     0  0
 15 17  1  0     0  0
 16 18  2  0     0  0
 19 22  1  0     0  0
 22 23  1  0     0  0
 22 24  1  0     0  0
 23 25  1  0     0  0
 24 26  1  0     0  0
 25 27  1  0     0  0
 26 27  1  0     0  0
M  END
> <Compound >
12

> <standard_type>
pIC50

> <# Confs.>
25

> <canonical_smiles>
NC1=C(/C([H])=N/O)C(OCC2CCCCC2)=NC(NC3=CC=C(OC)C=C3)=N1

> <standard_relation>
=

> <predicted_activity_value>
5.6118987984294835

> <actual_activity_value>
5.080921907623926

> <Publication ID>
nan

> <standard_units>
nM

> hash
18056919525170555622

$$$$
12_
XXILIB    08252103513D 0   0.00000     0.00000

 27 29  0     1  0            999 V2000
    0.2879   -2.2222   -2.6650 O   0  0  0  0  0  2           0  0  0
    1.3872   -0.0000    0.0000 O   0  0  0  0  0  2           0  0  0
   -1.0045    0.0095    7.6726 O   0  0  0  0  0  2           0  0  0
   -0.6533   -0.0000    1.1838 N   0  0  0  0  0  3           0  0  0
   -2.7097    0.0098   -0.0006 N   0  0  0  0  0  3           0  0  0
    0.5988   -0.9696   -3.1866 N   0  0  0  0  0  3           0  0  0
   -2.7277    0.0152    2.3509 N   0  0  0  0  0  3           0  0  0
   -2.8199    0.0363   -2.3398 N   0  0  0  0  0  3           0  0  0
    0.0000    0.0000    0.0000 C   0  0  0  0  0  4           0  0  0
   -1.4960    0.0563    6.3929 C   0  0  0  0  0  4           0  0  0
   -2.0025    0.0074    1.1522 C   0  0  0  0  0  4           0  0  0
   -2.0470   -0.0081   -1.1850 C   0  0  0  0  0  4           0  0  0
   -2.2954    0.0169    3.6794 C   0  0  0  0  0  4           0  0  0
   -0.6544    0.0002   -1.2262 C   0  0  0  0  0  4           0  0  0
   -2.6941    0.6570    6.0036 C   0  0  0  0  0  4           0  0  0
   -0.7001   -0.5612    5.4251 C   0  0  0  0  0  4           0  0  0
   -3.0857    0.6357    4.6599 C   0  0  0  0  0  4           0  0  0
   -1.0946   -0.5813    4.0837 C   0  0  0  0  0  4           0  0  0
    1.9738   -0.0000    1.3009 C   0  0  0  0  0  4           0  0  0
   -1.9073    0.6723    8.5582 C   0  0  0  0  0  4           0  0  0
    0.1372    0.0111   -2.4692 C   0  0  0  0  0  4           0  0  0
    3.4930   -0.0000    1.1538 C   0  0  2  0  0  4           0  0  0
    4.1910   -0.0000    2.5246 C   0  0  0  0  0  4           0  0  0
    3.9485    1.1994    0.3112 C   0  0  0  0  0  4           0  0  0
    5.7107    0.0608    2.3858 C   0  0  0  0  0  4           0  0  0
    5.4683    1.2544    0.1769 C   0  0  0  0  0  4           0  0  0
    6.1536    1.2500    1.5396 C   0  0  0  0  0  4           0  0  0
  1  6  1  0     0  0
  2  9  1  0     0  0
  2 19  1  0     0  0
  3 10  1  0     0  0
  3 20  1  0     0  0
  4  9  2  0     0  0
  4 11  1  0     0  0
  5 11  2  0     0  0
  5 12  1  0     0  0
  6 21  2  0     0  0
  7 11  1  0     0  0
  7 13  1  0     0  0
  8 12  1  0     0  0
  9 14  1  0     0  0
 10 15  2  0     0  0
 10 16  1  0     0  0
 12 14  2  0     0  0
 13 17  2  0     0  0
 13 18  1  0     0  0
 14 21  1  0     0  0
 15 17  1  0     0  0
 16 18  2  0     0  0
 19 22  1  0     0  0
 22 23  1  0     0  0
 22 24  1  0     0  0
 23 25  1  0     0  0
 24 26  1  0     0  0
 25 27  1  0     0  0
 26 27  1  0     0  0
M  END
> <Compound >
12

> <standard_type>
pIC50

> <# Confs.>
25

> <canonical_smiles>
NC1=C(/C([H])=N/O)C(OCC2CCCCC2)=NC(NC3=CC=C(OC)C=C3)=N1

> <standard_relation>
=

> <predicted_activity_value>
5.6118987984294835

> <actual_activity_value>
5.080921907623926

> <Publication ID>
nan

> <standard_units>
nM

> hash
18056919525170555622

$$$$
12_
XXILIB    08252103513D 0   0.00000     0.00000

 27 29  0     1  0            999 V2000
    0.2879   -2.2222   -2.6650 O   0  0  0  0  0  2           0  0  0
    1.3872   -0.0000    0.0000 O   0  0  0  0  0  2           0  0  0
   -1.0045    0.0095    7.6726 O   0  0  0  0  0  2           0  0  0
   -0.6533   -0.0000    1.1838 N   0  0  0  0  0  3           0  0  0
   -2.7097    0.0098   -0.0006 N   0  0  0  0  0  3           0  0  0
    0.5988   -0.9696   -3.1866 N   0  0  0  0  0  3           0  0  0
   -2.7277    0.0152    2.3509 N   0  0  0  0  0  3           0  0  0
   -2.8199    0.0363   -2.3398 N   0  0  0  0  0  3           0  0  0
    0.0000    0.0000    0.0000 C   0  0  0  0  0  4           0  0  0
   -1.4960    0.0563    6.3929 C   0  0  0  0  0  4           0  0  0
   -2.0025    0.0074    1.1522 C   0  0  0  0  0  4           0  0  0
   -2.0470   -0.0081   -1.1850 C   0  0  0  0  0  4           0  0  0
   -2.2954    0.0169    3.6794 C   0  0  0  0  0  4           0  0  0
   -0.6544    0.0002   -1.2262 C   0  0  0  0  0  4           0  0  0
   -2.6941    0.6570    6.0036 C   0  0  0  0  0  4           0  0  0
   -0.7001   -0.5612    5.4251 C   0  0  0  0  0  4           0  0  0
   -3.0857    0.6357    4.6599 C   0  0  0  0  0  4           0  0  0
   -1.0946   -0.5813    4.0837 C   0  0  0  0  0  4           0  0  0
    1.9738   -0.0000    1.3009 C   0  0  0  0  0  4           0  0  0
   -1.9073    0.6723    8.5582 C   0  0  0  0  0  4           0  0  0
    0.1372    0.0111   -2.4692 C   0  0  0  0  0  4           0  0  0
    3.4930   -0.0000    1.1538 C   0  0  2  0  0  4           0  0  0
    3.9841    1.2398    0.3871 C   0  0  0  0  0  4           0  0  0
    3.9633   -1.2880    0.4640 C   0  0  0  0  0  4           0  0  0
    5.4975    1.2166    0.1835 C   0  0  0  0  0  4           0  0  0
    5.4766   -1.3044    0.2632 C   0  0  0  0  0  4           0  0  0
    5.9567   -0.0705   -0.4940 C   0  0  0  0  0  4           0  0  0
  1  6  1  0     0  0
  2  9  1  0     0  0
  2 19  1  0     0  0
  3 10  1  0     0  0
  3 20  1  0     0  0
  4  9  2  0     0  0
  4 11  1  0     0  0
  5 11  2  0     0  0
  5 12  1  0     0  0
  6 21  2  0     0  0
  7 11  1  0     0  0
  7 13  1  0     0  0
  8 12  1  0     0  0
  9 14  1  0     0  0
 10 15  2  0     0  0
 10 16  1  0     0  0
 12 14  2  0     0  0
 13 17  2  0     0  0
 13 18  1  0     0  0
 14 21  1  0     0  0
 15 17  1  0     0  0
 16 18  2  0     0  0
 19 22  1  0     0  0
 22 23  1  0     0  0
 22 24  1  0     0  0
 23 25  1  0     0  0
 24 26  1  0     0  0
 25 27  1  0     0  0
 26 27  1  0     0  0
M  END
> <Compound >
12

> <standard_type>
pIC50

> <# Confs.>
25

> <canonical_smiles>
NC1=C(/C([H])=N/O)C(OCC2CCCCC2)=NC(NC3=CC=C(OC)C=C3)=N1

> <standard_relation>
=

> <predicted_activity_value>
5.6118987984294835

> <actual_activity_value>
5.080921907623926

> <Publication ID>
nan

> <standard_units>
nM

> hash
18056919525170555622

$$$$
12_
XXILIB    08252103513D 0   0.00000     0.00000

 27 29  0     1  0            999 V2000
    0.2879   -2.2222   -2.6650 O   0  0  0  0  0  2           0  0  0
    1.3872   -0.0000    0.0000 O   0  0  0  0  0  2           0  0  0
   -0.9902    0.0089    7.6679 O   0  0  0  0  0  2           0  0  0
   -0.6533   -0.0000    1.1838 N   0  0  0  0  0  3           0  0  0
   -2.7097    0.0098   -0.0006 N   0  0  0  0  0  3           0  0  0
    0.5988   -0.9696   -3.1866 N   0  0  0  0  0  3           0  0  0
   -2.7277    0.0152    2.3509 N   0  0  0  0  0  3           0  0  0
   -2.8199    0.0363   -2.3398 N   0  0  0  0  0  3           0  0  0
    0.0000    0.0000    0.0000 C   0  0  0  0  0  4           0  0  0
   -1.4877   -0.0304    6.3903 C   0  0  0  0  0  4           0  0  0
   -2.0025    0.0074    1.1522 C   0  0  0  0  0  4           0  0  0
   -2.0470   -0.0081   -1.1850 C   0  0  0  0  0  4           0  0  0
   -2.2954    0.0169    3.6794 C   0  0  0  0  0  4           0  0  0
   -0.6544    0.0002   -1.2262 C   0  0  0  0  0  4           0  0  0
   -2.6963   -0.6129    6.0060 C   0  0  0  0  0  4           0  0  0
   -0.6867    0.5752    5.4191 C   0  0  0  0  0  4           0  0  0
   -3.0925   -0.5868    4.6637 C   0  0  0  0  0  4           0  0  0
   -1.0851    0.5989    4.0790 C   0  0  0  0  0  4           0  0  0
    1.9738   -0.0000    1.3009 C   0  0  0  0  0  4           0  0  0
   -1.8991   -0.6401    8.5573 C   0  0  0  0  0  4           0  0  0
    0.1372    0.0111   -2.4692 C   0  0  0  0  0  4           0  0  0
    3.4930   -0.0000    1.1538 C   0  0  2  0  0  4           0  0  0
    4.1910   -0.0000    2.5246 C   0  0  0  0  0  4           0  0  0
    3.9485    1.1994    0.3112 C   0  0  0  0  0  4           0  0  0
    5.7107    0.0608    2.3858 C   0  0  0  0  0  4           0  0  0
    5.4683    1.2544    0.1769 C   0  0  0  0  0  4           0  0  0
    6.1536    1.2500    1.5396 C   0  0  0  0  0  4           0  0  0
  1  6  1  0     0  0
  2  9  1  0     0  0
  2 19  1  0     0  0
  3 10  1  0     0  0
  3 20  1  0     0  0
  4  9  2  0     0  0
  4 11  1  0     0  0
  5 11  2  0     0  0
  5 12  1  0     0  0
  6 21  2  0     0  0
  7 11  1  0     0  0
  7 13  1  0     0  0
  8 12  1  0     0  0
  9 14  1  0     0  0
 10 15  2  0     0  0
 10 16  1  0     0  0
 12 14  2  0     0  0
 13 17  2  0     0  0
 13 18  1  0     0  0
 14 21  1  0     0  0
 15 17  1  0     0  0
 16 18  2  0     0  0
 19 22  1  0     0  0
 22 23  1  0     0  0
 22 24  1  0     0  0
 23 25  1  0     0  0
 24 26  1  0     0  0
 25 27  1  0     0  0
 26 27  1  0     0  0
M  END
> <Compound >
12

> <standard_type>
pIC50

> <# Confs.>
25

> <canonical_smiles>
NC1=C(/C([H])=N/O)C(OCC2CCCCC2)=NC(NC3=CC=C(OC)C=C3)=N1

> <standard_relation>
=

> <predicted_activity_value>
5.6118987984294835

> <actual_activity_value>
5.080921907623926

> <Publication ID>
nan

> <standard_units>
nM

> hash
18056919525170555622

$$$$
12_
XXILIB    08252103513D 0   0.00000     0.00000

 27 29  0     1  0            999 V2000
    0.2879   -2.2222   -2.6650 O   0  0  0  0  0  2           0  0  0
    1.3872   -0.0000    0.0000 O   0  0  0  0  0  2           0  0  0
   -0.9902    0.0089    7.6679 O   0  0  0  0  0  2           0  0  0
   -0.6533   -0.0000    1.1838 N   0  0  0  0  0  3           0  0  0
   -2.7097    0.0098   -0.0006 N   0  0  0  0  0  3           0  0  0
    0.5988   -0.9696   -3.1866 N   0  0  0  0  0  3           0  0  0
   -2.7277    0.0152    2.3509 N   0  0  0  0  0  3           0  0  0
   -2.8199    0.0363   -2.3398 N   0  0  0  0  0  3           0  0  0
    0.0000    0.0000    0.0000 C   0  0  0  0  0  4           0  0  0
   -1.4877   -0.0304    6.3903 C   0  0  0  0  0  4           0  0  0
   -2.0025    0.0074    1.1522 C   0  0  0  0  0  4           0  0  0
   -2.0470   -0.0081   -1.1850 C   0  0  0  0  0  4           0  0  0
   -2.2954    0.0169    3.6794 C   0  0  0  0  0  4           0  0  0
   -0.6544    0.0002   -1.2262 C   0  0  0  0  0  4           0  0  0
   -2.6963   -0.6129    6.0060 C   0  0  0  0  0  4           0  0  0
   -0.6867    0.5752    5.4191 C   0  0  0  0  0  4           0  0  0
   -3.0925   -0.5868    4.6637 C   0  0  0  0  0  4           0  0  0
   -1.0851    0.5989    4.0790 C   0  0  0  0  0  4           0  0  0
    1.9738   -0.0000    1.3009 C   0  0  0  0  0  4           0  0  0
   -1.8991   -0.6401    8.5573 C   0  0  0  0  0  4           0  0  0
    0.1372    0.0111   -2.4692 C   0  0  0  0  0  4           0  0  0
    3.4930   -0.0000    1.1538 C   0  0  2  0  0  4           0  0  0
    3.9841    1.2398    0.3871 C   0  0  0  0  0  4           0  0  0
    3.9633   -1.2880    0.4640 C   0  0  0  0  0  4           0  0  0
    5.4975    1.2166    0.1835 C   0  0  0  0  0  4           0  0  0
    5.4766   -1.3044    0.2632 C   0  0  0  0  0  4           0  0  0
    5.9567   -0.0705   -0.4940 C   0  0  0  0  0  4           0  0  0
  1  6  1  0     0  0
  2  9  1  0     0  0
  2 19  1  0     0  0
  3 10  1  0     0  0
  3 20  1  0     0  0
  4  9  2  0     0  0
  4 11  1  0     0  0
  5 11  2  0     0  0
  5 12  1  0     0  0
  6 21  2  0     0  0
  7 11  1  0     0  0
  7 13  1  0     0  0
  8 12  1  0     0  0
  9 14  1  0     0  0
 10 15  2  0     0  0
 10 16  1  0     0  0
 12 14  2  0     0  0
 13 17  2  0     0  0
 13 18  1  0     0  0
 14 21  1  0     0  0
 15 17  1  0     0  0
 16 18  2  0     0  0
 19 22  1  0     0  0
 22 23  1  0     0  0
 22 24  1  0     0  0
 23 25  1  0     0  0
 24 26  1  0     0  0
 25 27  1  0     0  0
 26 27  1  0     0  0
M  END
> <Compound >
12

> <standard_type>
pIC50

> <# Confs.>
25

> <canonical_smiles>
NC1=C(/C([H])=N/O)C(OCC2CCCCC2)=NC(NC3=CC=C(OC)C=C3)=N1

> <standard_relation>
=

> <predicted_activity_value>
5.6118987984294835

> <actual_activity_value>
5.080921907623926

> <Publication ID>
nan

> <standard_units>
nM

> hash
18056919525170555622

$$$$
12_
XXILIB    08252103513D 0   0.00000     0.00000

 27 29  0     1  0            999 V2000
    0.2879   -2.2222   -2.6650 O   0  0  0  0  0  2           0  0  0
    1.3872   -0.0000    0.0000 O   0  0  0  0  0  2           0  0  0
   -1.0045    0.0095    7.6726 O   0  0  0  0  0  2           0  0  0
   -0.6533   -0.0000    1.1838 N   0  0  0  0  0  3           0  0  0
   -2.7097    0.0098   -0.0006 N   0  0  0  0  0  3           0  0  0
    0.5988   -0.9696   -3.1866 N   0  0  0  0  0  3           0  0  0
   -2.7277    0.0152    2.3509 N   0  0  0  0  0  3           0  0  0
   -2.8199    0.0363   -2.3398 N   0  0  0  0  0  3           0  0  0
    0.0000    0.0000    0.0000 C   0  0  0  0  0  4           0  0  0
   -1.4960    0.0563    6.3929 C   0  0  0  0  0  4           0  0  0
   -2.0025    0.0074    1.1522 C   0  0  0  0  0  4           0  0  0
   -2.0470   -0.0081   -1.1850 C   0  0  0  0  0  4           0  0  0
   -2.2954    0.0169    3.6794 C   0  0  0  0  0  4           0  0  0
   -0.6544    0.0002   -1.2262 C   0  0  0  0  0  4           0  0  0
   -2.6941    0.6570    6.0036 C   0  0  0  0  0  4           0  0  0
   -0.7001   -0.5612    5.4251 C   0  0  0  0  0  4           0  0  0
   -3.0857    0.6357    4.6599 C   0  0  0  0  0  4           0  0  0
   -1.0946   -0.5813    4.0837 C   0  0  0  0  0  4           0  0  0
    1.9738   -0.0000    1.3009 C   0  0  0  0  0  4           0  0  0
   -1.9073    0.6723    8.5582 C   0  0  0  0  0  4           0  0  0
    0.1372    0.0111   -2.4692 C   0  0  0  0  0  4           0  0  0
    3.4930   -0.0000    1.1538 C   0  0  2  0  0  4           0  0  0
    4.1877   -0.0000    2.5236 C   0  0  0  0  0  4           0  0  0
    4.0009   -1.1720    0.2949 C   0  0  0  0  0  4           0  0  0
    4.0850   -1.3448    3.2409 C   0  0  0  0  0  4           0  0  0
    3.9037   -2.5194    1.0088 C   0  0  0  0  0  4           0  0  0
    4.5966   -2.4868    2.3679 C   0  0  0  0  0  4           0  0  0
  1  6  1  0     0  0
  2  9  1  0     0  0
  2 19  1  0     0  0
  3 10  1  0     0  0
  3 20  1  0     0  0
  4  9  2  0     0  0
  4 11  1  0     0  0
  5 11  2  0     0  0
  5 12  1  0     0  0
  6 21  2  0     0  0
  7 11  1  0     0  0
  7 13  1  0     0  0
  8 12  1  0     0  0
  9 14  1  0     0  0
 10 15  2  0     0  0
 10 16  1  0     0  0
 12 14  2  0     0  0
 13 17  2  0     0  0
 13 18  1  0     0  0
 14 21  1  0     0  0
 15 17  1  0     0  0
 16 18  2  0     0  0
 19 22  1  0     0  0
 22 23  1  0     0  0
 22 24  1  0     0  0
 23 25  1  0     0  0
 24 26  1  0     0  0
 25 27  1  0     0  0
 26 27  1  0     0  0
M  END
> <Compound >
12

> <standard_type>
pIC50

> <# Confs.>
25

> <canonical_smiles>
NC1=C(/C([H])=N/O)C(OCC2CCCCC2)=NC(NC3=CC=C(OC)C=C3)=N1

> <standard_relation>
=

> <predicted_activity_value>
5.6118987984294835

> <actual_activity_value>
5.080921907623926

> <Publication ID>
nan

> <standard_units>
nM

> hash
18056919525170555622

$$$$
12_
XXILIB    08252103513D 0   0.00000     0.00000

 27 29  0     1  0            999 V2000
    0.2879   -2.2222   -2.6650 O   0  0  0  0  0  2           0  0  0
    1.3872   -0.0000    0.0000 O   0  0  0  0  0  2           0  0  0
   -1.0045    0.0095    7.6726 O   0  0  0  0  0  2           0  0  0
   -0.6533   -0.0000    1.1838 N   0  0  0  0  0  3           0  0  0
   -2.7097    0.0098   -0.0006 N   0  0  0  0  0  3           0  0  0
    0.5988   -0.9696   -3.1866 N   0  0  0  0  0  3           0  0  0
   -2.7277    0.0152    2.3509 N   0  0  0  0  0  3           0  0  0
   -2.8199    0.0363   -2.3398 N   0  0  0  0  0  3           0  0  0
    0.0000    0.0000    0.0000 C   0  0  0  0  0  4           0  0  0
   -1.4960    0.0563    6.3929 C   0  0  0  0  0  4           0  0  0
   -2.0025    0.0074    1.1522 C   0  0  0  0  0  4           0  0  0
   -2.0470   -0.0081   -1.1850 C   0  0  0  0  0  4           0  0  0
   -2.2954    0.0169    3.6794 C   0  0  0  0  0  4           0  0  0
   -0.6544    0.0002   -1.2262 C   0  0  0  0  0  4           0  0  0
   -2.6941    0.6570    6.0036 C   0  0  0  0  0  4           0  0  0
   -0.7001   -0.5612    5.4251 C   0  0  0  0  0  4           0  0  0
   -3.0857    0.6357    4.6599 C   0  0  0  0  0  4           0  0  0
   -1.0946   -0.5813    4.0837 C   0  0  0  0  0  4           0  0  0
    1.9738   -0.0000    1.3009 C   0  0  0  0  0  4           0  0  0
   -1.9073    0.6723    8.5582 C   0  0  0  0  0  4           0  0  0
    0.1372    0.0111   -2.4692 C   0  0  0  0  0  4           0  0  0
    3.4930   -0.0000    1.1538 C   0  0  2  0  0  4           0  0  0
    3.9810    1.2387    0.3881 C   0  0  0  0  0  4           0  0  0
    4.2152   -0.1120    2.5085 C   0  0  0  0  0  4           0  0  0
    3.8887    2.5209    1.2133 C   0  0  0  0  0  4           0  0  0
    4.1290    1.1690    3.3369 C   0  0  0  0  0  4           0  0  0
    4.6141    2.3820    2.5486 C   0  0  0  0  0  4           0  0  0
  1  6  1  0     0  0
  2  9  1  0     0  0
  2 19  1  0     0  0
  3 10  1  0     0  0
  3 20  1  0     0  0
  4  9  2  0     0  0
  4 11  1  0     0  0
  5 11  2  0     0  0
  5 12  1  0     0  0
  6 21  2  0     0  0
  7 11  1  0     0  0
  7 13  1  0     0  0
  8 12  1  0     0  0
  9 14  1  0     0  0
 10 15  2  0     0  0
 10 16  1  0     0  0
 12 14  2  0     0  0
 13 17  2  0     0  0
 13 18  1  0     0  0
 14 21  1  0     0  0
 15 17  1  0     0  0
 16 18  2  0     0  0
 19 22  1  0     0  0
 22 23  1  0     0  0
 22 24  1  0     0  0
 23 25  1  0     0  0
 24 26  1  0     0  0
 25 27  1  0     0  0
 26 27  1  0     0  0
M  END
> <Compound >
12

> <standard_type>
pIC50

> <# Confs.>
25

> <canonical_smiles>
NC1=C(/C([H])=N/O)C(OCC2CCCCC2)=NC(NC3=CC=C(OC)C=C3)=N1

> <standard_relation>
=

> <predicted_activity_value>
5.6118987984294835

> <actual_activity_value>
5.080921907623926

> <Publication ID>
nan

> <standard_units>
nM

> hash
18056919525170555622

$$$$
12_
XXILIB    08252103513D 0   0.00000     0.00000

 27 29  0     1  0            999 V2000
    0.2879   -2.2222   -2.6650 O   0  0  0  0  0  2           0  0  0
    1.3872   -0.0000    0.0000 O   0  0  0  0  0  2           0  0  0
   -0.9902    0.0089    7.6679 O   0  0  0  0  0  2           0  0  0
   -0.6533   -0.0000    1.1838 N   0  0  0  0  0  3           0  0  0
   -2.7097    0.0098   -0.0006 N   0  0  0  0  0  3           0  0  0
    0.5988   -0.9696   -3.1866 N   0  0  0  0  0  3           0  0  0
   -2.7277    0.0152    2.3509 N   0  0  0  0  0  3           0  0  0
   -2.8199    0.0363   -2.3398 N   0  0  0  0  0  3           0  0  0
    0.0000    0.0000    0.0000 C   0  0  0  0  0  4           0  0  0
   -1.4877   -0.0304    6.3903 C   0  0  0  0  0  4           0  0  0
   -2.0025    0.0074    1.1522 C   0  0  0  0  0  4           0  0  0
   -2.0470   -0.0081   -1.1850 C   0  0  0  0  0  4           0  0  0
   -2.2954    0.0169    3.6794 C   0  0  0  0  0  4           0  0  0
   -0.6544    0.0002   -1.2262 C   0  0  0  0  0  4           0  0  0
   -2.6963   -0.6129    6.0060 C   0  0  0  0  0  4           0  0  0
   -0.6867    0.5752    5.4191 C   0  0  0  0  0  4           0  0  0
   -3.0925   -0.5868    4.6637 C   0  0  0  0  0  4           0  0  0
   -1.0851    0.5989    4.0790 C   0  0  0  0  0  4           0  0  0
    1.9738   -0.0000    1.3009 C   0  0  0  0  0  4           0  0  0
   -1.8991   -0.6401    8.5573 C   0  0  0  0  0  4           0  0  0
    0.1372    0.0111   -2.4692 C   0  0  0  0  0  4           0  0  0
    3.4930   -0.0000    1.1538 C   0  0  2  0  0  4           0  0  0
    3.9810    1.2387    0.3881 C   0  0  0  0  0  4           0  0  0
    4.2152   -0.1120    2.5085 C   0  0  0  0  0  4           0  0  0
    3.8887    2.5209    1.2133 C   0  0  0  0  0  4           0  0  0
    4.1290    1.1690    3.3369 C   0  0  0  0  0  4           0  0  0
    4.6141    2.3820    2.5486 C   0  0  0  0  0  4           0  0  0
  1  6  1  0     0  0
  2  9  1  0     0  0
  2 19  1  0     0  0
  3 10  1  0     0  0
  3 20  1  0     0  0
  4  9  2  0     0  0
  4 11  1  0     0  0
  5 11  2  0     0  0
  5 12  1  0     0  0
  6 21  2  0     0  0
  7 11  1  0     0  0
  7 13  1  0     0  0
  8 12  1  0     0  0
  9 14  1  0     0  0
 10 15  2  0     0  0
 10 16  1  0     0  0
 12 14  2  0     0  0
 13 17  2  0     0  0
 13 18  1  0     0  0
 14 21  1  0     0  0
 15 17  1  0     0  0
 16 18  2  0     0  0
 19 22  1  0     0  0
 22 23  1  0     0  0
 22 24  1  0     0  0
 23 25  1  0     0  0
 24 26  1  0     0  0
 25 27  1  0     0  0
 26 27  1  0     0  0
M  END
> <Compound >
12

> <standard_type>
pIC50

> <# Confs.>
25

> <canonical_smiles>
NC1=C(/C([H])=N/O)C(OCC2CCCCC2)=NC(NC3=CC=C(OC)C=C3)=N1

> <standard_relation>
=

> <predicted_activity_value>
5.6118987984294835

> <actual_activity_value>
5.080921907623926

> <Publication ID>
nan

> <standard_units>
nM

> hash
18056919525170555622

$$$$
12_
XXILIB    08252103513D 0   0.00000     0.00000

 27 29  0     1  0            999 V2000
    0.2879   -2.2222   -2.6650 O   0  0  0  0  0  2           0  0  0
    1.3872   -0.0000    0.0000 O   0  0  0  0  0  2           0  0  0
   -0.9902    0.0089    7.6679 O   0  0  0  0  0  2           0  0  0
   -0.6533   -0.0000    1.1838 N   0  0  0  0  0  3           0  0  0
   -2.7097    0.0098   -0.0006 N   0  0  0  0  0  3           0  0  0
    0.5988   -0.9696   -3.1866 N   0  0  0  0  0  3           0  0  0
   -2.7277    0.0152    2.3509 N   0  0  0  0  0  3           0  0  0
   -2.8199    0.0363   -2.3398 N   0  0  0  0  0  3           0  0  0
    0.0000    0.0000    0.0000 C   0  0  0  0  0  4           0  0  0
   -1.4877   -0.0304    6.3903 C   0  0  0  0  0  4           0  0  0
   -2.0025    0.0074    1.1522 C   0  0  0  0  0  4           0  0  0
   -2.0470   -0.0081   -1.1850 C   0  0  0  0  0  4           0  0  0
   -2.2954    0.0169    3.6794 C   0  0  0  0  0  4           0  0  0
   -0.6544    0.0002   -1.2262 C   0  0  0  0  0  4           0  0  0
   -2.6963   -0.6129    6.0060 C   0  0  0  0  0  4           0  0  0
   -0.6867    0.5752    5.4191 C   0  0  0  0  0  4           0  0  0
   -3.0925   -0.5868    4.6637 C   0  0  0  0  0  4           0  0  0
   -1.0851    0.5989    4.0790 C   0  0  0  0  0  4           0  0  0
    1.9738   -0.0000    1.3009 C   0  0  0  0  0  4           0  0  0
   -1.8991   -0.6401    8.5573 C   0  0  0  0  0  4           0  0  0
    0.1372    0.0111   -2.4692 C   0  0  0  0  0  4           0  0  0
    3.4930   -0.0000    1.1538 C   0  0  2  0  0  4           0  0  0
    4.1877   -0.0000    2.5236 C   0  0  0  0  0  4           0  0  0
    4.0009   -1.1720    0.2949 C   0  0  0  0  0  4           0  0  0
    4.0850   -1.3448    3.2409 C   0  0  0  0  0  4           0  0  0
    3.9037   -2.5194    1.0088 C   0  0  0  0  0  4           0  0  0
    4.5966   -2.4868    2.3679 C   0  0  0  0  0  4           0  0  0
  1  6  1  0     0  0
  2  9  1  0     0  0
  2 19  1  0     0  0
  3 10  1  0     0  0
  3 20  1  0     0  0
  4  9  2  0     0  0
  4 11  1  0     0  0
  5 11  2  0     0  0
  5 12  1  0     0  0
  6 21  2  0     0  0
  7 11  1  0     0  0
  7 13  1  0     0  0
  8 12  1  0     0  0
  9 14  1  0     0  0
 10 15  2  0     0  0
 10 16  1  0     0  0
 12 14  2  0     0  0
 13 17  2  0     0  0
 13 18  1  0     0  0
 14 21  1  0     0  0
 15 17  1  0     0  0
 16 18  2  0     0  0
 19 22  1  0     0  0
 22 23  1  0     0  0
 22 24  1  0     0  0
 23 25  1  0     0  0
 24 26  1  0     0  0
 25 27  1  0     0  0
 26 27  1  0     0  0
M  END
> <Compound >
12

> <standard_type>
pIC50

> <# Confs.>
25

> <canonical_smiles>
NC1=C(/C([H])=N/O)C(OCC2CCCCC2)=NC(NC3=CC=C(OC)C=C3)=N1

> <standard_relation>
=

> <predicted_activity_value>
5.6118987984294835

> <actual_activity_value>
5.080921907623926

> <Publication ID>
nan

> <standard_units>
nM

> hash
18056919525170555622

$$$$
12_
XXILIB    08252103513D 0   0.00000     0.00000

 27 29  0     1  0            999 V2000
    0.2879   -2.2222   -2.6650 O   0  0  0  0  0  2           0  0  0
    1.3872   -0.0000    0.0000 O   0  0  0  0  0  2           0  0  0
   -0.9975    0.0072    7.6703 O   0  0  0  0  0  2           0  0  0
   -0.6533   -0.0000    1.1838 N   0  0  0  0  0  3           0  0  0
   -2.7097    0.0098   -0.0006 N   0  0  0  0  0  3           0  0  0
    0.5988   -0.9696   -3.1866 N   0  0  0  0  0  3           0  0  0
   -2.7277    0.0152    2.3509 N   0  0  0  0  0  3           0  0  0
   -2.8199    0.0363   -2.3398 N   0  0  0  0  0  3           0  0  0
    0.0000    0.0000    0.0000 C   0  0  0  0  0  4           0  0  0
   -1.5029    0.0118    6.3952 C   0  0  0  0  0  4           0  0  0
   -2.0025    0.0074    1.1522 C   0  0  0  0  0  4           0  0  0
   -2.0470   -0.0081   -1.1850 C   0  0  0  0  0  4           0  0  0
   -2.2954    0.0169    3.6794 C   0  0  0  0  0  4           0  0  0
   -0.6544    0.0002   -1.2262 C   0  0  0  0  0  4           0  0  0
   -2.8570    0.0224    6.0574 C   0  0  0  0  0  4           0  0  0
   -0.5486    0.0050    5.3750 C   0  0  0  0  0  4           0  0  0
   -3.2448    0.0255    4.7125 C   0  0  0  0  0  4           0  0  0
   -0.9395    0.0074    4.0324 C   0  0  0  0  0  4           0  0  0
    1.9738   -0.6504    1.1266 C   0  0  0  0  0  4           0  0  0
   -2.0704    0.0150    8.6122 C   0  0  0  0  0  4           0  0  0
    0.1372    0.0111   -2.4692 C   0  0  0  0  0  4           0  0  0
    3.3165   -1.2425    0.7068 C   0  0  2  0  0  4           0  0  0
    3.1493   -2.2678   -0.4276 C   0  0  0  0  0  4           0  0  0
    4.0219   -1.8765    1.9137 C   0  0  0  0  0  4           0  0  0
    4.4812   -2.9088   -0.8119 C   0  0  0  0  0  4           0  0  0
    5.3520   -2.5157    1.5225 C   0  0  0  0  0  4           0  0  0
    5.1791   -3.5279    0.3947 C   0  0  0  0  0  4           0  0  0
  1  6  1  0     0  0
  2  9  1  0     0  0
  2 19  1  0     0  0
  3 10  1  0     0  0
  3 20  1  0     0  0
  4  9  2  0     0  0
  4 11  1  0     0  0
  5 11  2  0     0  0
  5 12  1  0     0  0
  6 21  2  0     0  0
  7 11  1  0     0  0
  7 13  1  0     0  0
  8 12  1  0     0  0
  9 14  1  0     0  0
 10 15  2  0     0  0
 10 16  1  0     0  0
 12 14  2  0     0  0
 13 17  2  0     0  0
 13 18  1  0     0  0
 14 21  1  0     0  0
 15 17  1  0     0  0
 16 18  2  0     0  0
 19 22  1  0     0  0
 22 23  1  0     0  0
 22 24  1  0     0  0
 23 25  1  0     0  0
 24 26  1  0     0  0
 25 27  1  0     0  0
 26 27  1  0     0  0
M  END
> <Compound >
12

> <standard_type>
pIC50

> <# Confs.>
25

> <canonical_smiles>
NC1=C(/C([H])=N/O)C(OCC2CCCCC2)=NC(NC3=CC=C(OC)C=C3)=N1

> <standard_relation>
=

> <predicted_activity_value>
5.6118987984294835

> <actual_activity_value>
5.080921907623926

> <Publication ID>
nan

> <standard_units>
nM

> hash
18056919525170555622

$$$$
12_
XXILIB    08252103513D 0   0.00000     0.00000

 27 29  0     1  0            999 V2000
    1.2268   -1.9118   -2.0643 O   0  0  0  0  0  2           0  0  0
    1.3872   -0.0000    0.0000 O   0  0  0  0  0  2           0  0  0
   -0.9892    0.0350    7.6675 O   0  0  0  0  0  2           0  0  0
   -0.6533   -0.0000    1.1838 N   0  0  0  0  0  3           0  0  0
   -2.7097    0.0098   -0.0006 N   0  0  0  0  0  3           0  0  0
    1.0141   -0.8354   -2.9209 N   0  0  0  0  0  3           0  0  0
   -2.7277    0.0152    2.3509 N   0  0  0  0  0  3           0  0  0
   -2.8199    0.0363   -2.3398 N   0  0  0  0  0  3           0  0  0
    0.0000    0.0000    0.0000 C   0  0  0  0  0  4           0  0  0
   -1.3448   -0.0152    6.3438 C   0  0  0  0  0  4           0  0  0
   -2.0025    0.0074    1.1522 C   0  0  0  0  0  4           0  0  0
   -2.0470   -0.0081   -1.1850 C   0  0  0  0  0  4           0  0  0
   -2.2954    0.0169    3.6794 C   0  0  0  0  0  4           0  0  0
   -0.6544    0.0002   -1.2262 C   0  0  0  0  0  4           0  0  0
   -0.6048   -0.6177    5.3254 C   0  0  0  0  0  4           0  0  0
   -2.5584    0.6006    6.0282 C   0  0  0  0  0  4           0  0  0
   -1.0790   -0.6000    4.0085 C   0  0  0  0  0  4           0  0  0
   -3.0289    0.6171    4.7115 C   0  0  0  0  0  4           0  0  0
    1.9738   -0.0000    1.3009 C   0  0  0  0  0  4           0  0  0
    0.2624   -0.6263    7.8540 C   0  0  0  0  0  4           0  0  0
    0.1372    0.0111   -2.4692 C   0  0  0  0  0  4           0  0  0
    3.4930   -0.0000    1.1538 C   0  0  2  0  0  4           0  0  0
    3.9841   -1.2398    0.3871 C   0  0  0  0  0  4           0  0  0
    4.1634    0.0886    2.5317 C   0  0  0  0  0  4           0  0  0
    5.5076   -1.2774    0.2884 C   0  0  0  0  0  4           0  0  0
    5.6860    0.0501    2.4258 C   0  0  0  0  0  4           0  0  0
    6.1653   -1.1796    1.6611 C   0  0  0  0  0  4           0  0  0
  1  6  1  0     0  0
  2  9  1  0     0  0
  2 19  1  0     0  0
  3 10  1  0     0  0
  3 20  1  0     0  0
  4  9  2  0     0  0
  4 11  1  0     0  0
  5 11  2  0     0  0
  5 12  1  0     0  0
  6 21  2  0     0  0
  7 11  1  0     0  0
  7 13  1  0     0  0
  8 12  1  0     0  0
  9 14  1  0     0  0
 10 15  2  0     0  0
 10 16  1  0     0  0
 12 14  2  0     0  0
 13 17  2  0     0  0
 13 18  1  0     0  0
 14 21  1  0     0  0
 15 17  1  0     0  0
 16 18  2  0     0  0
 19 22  1  0     0  0
 22 23  1  0     0  0
 22 24  1  0     0  0
 23 25  1  0     0  0
 24 26  1  0     0  0
 25 27  1  0     0  0
 26 27  1  0     0  0
M  END
> <Compound >
12

> <standard_type>
pIC50

> <# Confs.>
25

> <canonical_smiles>
NC1=C(/C([H])=N/O)C(OCC2CCCCC2)=NC(NC3=CC=C(OC)C=C3)=N1

> <standard_relation>
=

> <predicted_activity_value>
5.6118987984294835

> <actual_activity_value>
5.080921907623926

> <Publication ID>
nan

> <standard_units>
nM

> hash
18056919525170555622

$$$$
12_
XXILIB    08252103513D 0   0.00000     0.00000

 27 29  0     1  0            999 V2000
    0.2879   -2.2222   -2.6650 O   0  0  0  0  0  2           0  0  0
    1.3872   -0.0000    0.0000 O   0  0  0  0  0  2           0  0  0
   -8.2410    0.0615    3.2945 O   0  0  0  0  0  2           0  0  0
   -0.6533   -0.0000    1.1838 N   0  0  0  0  0  3           0  0  0
   -2.7097    0.0098   -0.0006 N   0  0  0  0  0  3           0  0  0
    0.5988   -0.9696   -3.1866 N   0  0  0  0  0  3           0  0  0
   -2.7277    0.0152    2.3509 N   0  0  0  0  0  3           0  0  0
   -2.8199    0.0363   -2.3398 N   0  0  0  0  0  3           0  0  0
    0.0000    0.0000    0.0000 C   0  0  0  0  0  4           0  0  0
   -6.8798    0.0054    3.1364 C   0  0  0  0  0  4           0  0  0
   -2.0025    0.0074    1.1522 C   0  0  0  0  0  4           0  0  0
   -2.0470   -0.0081   -1.1850 C   0  0  0  0  0  4           0  0  0
   -4.1050    0.0235    2.5846 C   0  0  0  0  0  4           0  0  0
   -0.6544    0.0002   -1.2262 C   0  0  0  0  0  4           0  0  0
   -5.9822   -0.5920    4.0225 C   0  0  0  0  0  4           0  0  0
   -6.3884    0.6091    1.9763 C   0  0  0  0  0  4           0  0  0
   -4.6102   -0.5813    3.7455 C   0  0  0  0  0  4           0  0  0
   -5.0171    0.6186    1.7029 C   0  0  0  0  0  4           0  0  0
    1.9738   -0.0000    1.3009 C   0  0  0  0  0  4           0  0  0
   -8.6103   -0.5876    4.5115 C   0  0  0  0  0  4           0  0  0
    0.1372    0.0111   -2.4692 C   0  0  0  0  0  4           0  0  0
    3.4930   -0.0000    1.1538 C   0  0  2  0  0  4           0  0  0
    3.9841   -1.2398    0.3871 C   0  0  0  0  0  4           0  0  0
    4.1634    0.0886    2.5317 C   0  0  0  0  0  4           0  0  0
    5.5076   -1.2774    0.2884 C   0  0  0  0  0  4           0  0  0
    5.6860    0.0501    2.4258 C   0  0  0  0  0  4           0  0  0
    6.1653   -1.1796    1.6611 C   0  0  0  0  0  4           0  0  0
  1  6  1  0     0  0
  2  9  1  0     0  0
  2 19  1  0     0  0
  3 10  1  0     0  0
  3 20  1  0     0  0
  4  9  2  0     0  0
  4 11  1  0     0  0
  5 11  2  0     0  0
  5 12  1  0     0  0
  6 21  2  0     0  0
  7 11  1  0     0  0
  7 13  1  0     0  0
  8 12  1  0     0  0
  9 14  1  0     0  0
 10 15  2  0     0  0
 10 16  1  0     0  0
 12 14  2  0     0  0
 13 17  2  0     0  0
 13 18  1  0     0  0
 14 21  1  0     0  0
 15 17  1  0     0  0
 16 18  2  0     0  0
 19 22  1  0     0  0
 22 23  1  0     0  0
 22 24  1  0     0  0
 23 25  1  0     0  0
 24 26  1  0     0  0
 25 27  1  0     0  0
 26 27  1  0     0  0
M  END
> <Compound >
12

> <standard_type>
pIC50

> <# Confs.>
25

> <canonical_smiles>
NC1=C(/C([H])=N/O)C(OCC2CCCCC2)=NC(NC3=CC=C(OC)C=C3)=N1

> <standard_relation>
=

> <predicted_activity_value>
5.6118987984294835

> <actual_activity_value>
5.080921907623926

> <Publication ID>
nan

> <standard_units>
nM

> hash
18056919525170555622

$$$$
12_
XXILIB    08252103513D 0   0.00000     0.00000

 27 29  0     1  0            999 V2000
    0.2879   -2.2222   -2.6650 O   0  0  0  0  0  2           0  0  0
    1.3872   -0.0000   -0.0000 O   0  0  0  0  0  2           0  0  0
   -1.0035    0.0357    7.6722 O   0  0  0  0  0  2           0  0  0
   -0.6533   -0.0000    1.1838 N   0  0  0  0  0  3           0  0  0
   -2.7097    0.0098   -0.0006 N   0  0  0  0  0  3           0  0  0
    0.5988   -0.9696   -3.1866 N   0  0  0  0  0  3           0  0  0
   -2.7277    0.0152    2.3509 N   0  0  0  0  0  3           0  0  0
   -2.8199    0.0363   -2.3398 N   0  0  0  0  0  3           0  0  0
    0.0000    0.0000    0.0000 C   0  0  0  0  0  4           0  0  0
   -1.3532    0.0715    6.3464 C   0  0  0  0  0  4           0  0  0
   -2.0025    0.0074    1.1522 C   0  0  0  0  0  4           0  0  0
   -2.0470   -0.0081   -1.1850 C   0  0  0  0  0  4           0  0  0
   -2.2954    0.0169    3.6794 C   0  0  0  0  0  4           0  0  0
   -0.6544    0.0002   -1.2262 C   0  0  0  0  0  4           0  0  0
   -0.6027    0.6521    5.3230 C   0  0  0  0  0  4           0  0  0
   -2.5719   -0.5358    6.0341 C   0  0  0  0  0  4           0  0  0
   -1.0722    0.6224    4.0047 C   0  0  0  0  0  4           0  0  0
   -3.0384   -0.5631    4.7162 C   0  0  0  0  0  4           0  0  0
    1.9738   -0.6504    1.1266 C   0  0  0  0  0  4           0  0  0
    0.2543    0.6861    7.8548 C   0  0  0  0  0  4           0  0  0
    0.1372    0.0111   -2.4692 C   0  0  0  0  0  4           0  0  0
    3.4930   -0.5769    0.9992 C   0  0  2  0  0  4           0  0  0
    3.9841   -1.2673   -0.2847 C   0  0  0  0  0  4           0  0  0
    4.1634   -1.1891    2.2369 C   0  0  0  0  0  4           0  0  0
    5.5076   -1.2505   -0.3889 C   0  0  0  0  0  4           0  0  0
    5.6860   -1.1695    2.1258 C   0  0  0  0  0  4           0  0  0
    6.1653   -1.8521    0.8488 C   0  0  0  0  0  4           0  0  0
  1  6  1  0     0  0
  2  9  1  0     0  0
  2 19  1  0     0  0
  3 10  1  0     0  0
  3 20  1  0     0  0
  4  9  2  0     0  0
  4 11  1  0     0  0
  5 11  2  0     0  0
  5 12  1  0     0  0
  6 21  2  0     0  0
  7 11  1  0     0  0
  7 13  1  0     0  0
  8 12  1  0     0  0
  9 14  1  0     0  0
 10 15  2  0     0  0
 10 16  1  0     0  0
 12 14  2  0     0  0
 13 17  2  0     0  0
 13 18  1  0     0  0
 14 21  1  0     0  0
 15 17  1  0     0  0
 16 18  2  0     0  0
 19 22  1  0     0  0
 22 23  1  0     0  0
 22 24  1  0     0  0
 23 25  1  0     0  0
 24 26  1  0     0  0
 25 27  1  0     0  0
 26 27  1  0     0  0
M  END
> <Compound >
12

> <standard_type>
pIC50

> <# Confs.>
25

> <canonical_smiles>
NC1=C(/C([H])=N/O)C(OCC2CCCCC2)=NC(NC3=CC=C(OC)C=C3)=N1

> <standard_relation>
=

> <predicted_activity_value>
5.6118987984294835

> <actual_activity_value>
5.080921907623926

> <Publication ID>
nan

> <standard_units>
nM

> hash
18056919525170555622

$$$$
12_
XXILIB    08252103513D 0   0.00000     0.00000

 27 29  0     1  0            999 V2000
    1.2268   -1.9118   -2.0643 O   0  0  0  0  0  2           0  0  0
    1.3872   -0.0000    0.0000 O   0  0  0  0  0  2           0  0  0
   -0.9892    0.0350    7.6675 O   0  0  0  0  0  2           0  0  0
   -0.6533   -0.0000    1.1838 N   0  0  0  0  0  3           0  0  0
   -2.7097    0.0098   -0.0006 N   0  0  0  0  0  3           0  0  0
    1.0141   -0.8354   -2.9209 N   0  0  0  0  0  3           0  0  0
   -2.7277    0.0152    2.3509 N   0  0  0  0  0  3           0  0  0
   -2.8199    0.0363   -2.3398 N   0  0  0  0  0  3           0  0  0
    0.0000    0.0000    0.0000 C   0  0  0  0  0  4           0  0  0
   -1.3448   -0.0152    6.3438 C   0  0  0  0  0  4           0  0  0
   -2.0025    0.0074    1.1522 C   0  0  0  0  0  4           0  0  0
   -2.0470   -0.0081   -1.1850 C   0  0  0  0  0  4           0  0  0
   -2.2954    0.0169    3.6794 C   0  0  0  0  0  4           0  0  0
   -0.6544    0.0002   -1.2262 C   0  0  0  0  0  4           0  0  0
   -0.6048   -0.6177    5.3254 C   0  0  0  0  0  4           0  0  0
   -2.5584    0.6006    6.0282 C   0  0  0  0  0  4           0  0  0
   -1.0790   -0.6000    4.0085 C   0  0  0  0  0  4           0  0  0
   -3.0289    0.6171    4.7115 C   0  0  0  0  0  4           0  0  0
    1.9738   -0.0000    1.3009 C   0  0  0  0  0  4           0  0  0
    0.2624   -0.6263    7.8540 C   0  0  0  0  0  4           0  0  0
    0.1372    0.0111   -2.4692 C   0  0  0  0  0  4           0  0  0
    3.4930   -0.0000    1.1538 C   0  0  2  0  0  4           0  0  0
    4.1910   -0.0000    2.5246 C   0  0  0  0  0  4           0  0  0
    3.9485    1.1994    0.3112 C   0  0  0  0  0  4           0  0  0
    5.7107    0.0608    2.3858 C   0  0  0  0  0  4           0  0  0
    5.4683    1.2544    0.1769 C   0  0  0  0  0  4           0  0  0
    6.1536    1.2500    1.5396 C   0  0  0  0  0  4           0  0  0
  1  6  1  0     0  0
  2  9  1  0     0  0
  2 19  1  0     0  0
  3 10  1  0     0  0
  3 20  1  0     0  0
  4  9  2  0     0  0
  4 11  1  0     0  0
  5 11  2  0     0  0
  5 12  1  0     0  0
  6 21  2  0     0  0
  7 11  1  0     0  0
  7 13  1  0     0  0
  8 12  1  0     0  0
  9 14  1  0     0  0
 10 15  2  0     0  0
 10 16  1  0     0  0
 12 14  2  0     0  0
 13 17  2  0     0  0
 13 18  1  0     0  0
 14 21  1  0     0  0
 15 17  1  0     0  0
 16 18  2  0     0  0
 19 22  1  0     0  0
 22 23  1  0     0  0
 22 24  1  0     0  0
 23 25  1  0     0  0
 24 26  1  0     0  0
 25 27  1  0     0  0
 26 27  1  0     0  0
M  END
> <Compound >
12

> <standard_type>
pIC50

> <# Confs.>
25

> <canonical_smiles>
NC1=C(/C([H])=N/O)C(OCC2CCCCC2)=NC(NC3=CC=C(OC)C=C3)=N1

> <standard_relation>
=

> <predicted_activity_value>
5.6118987984294835

> <actual_activity_value>
5.080921907623926

> <Publication ID>
nan

> <standard_units>
nM

> hash
18056919525170555622

$$$$
12_
XXILIB    08252103513D 0   0.00000     0.00000

 27 29  0     1  0            999 V2000
    0.2879   -2.2222   -2.6650 O   0  0  0  0  0  2           0  0  0
    1.3872   -0.0000    0.0000 O   0  0  0  0  0  2           0  0  0
   -8.2410    0.0615    3.2945 O   0  0  0  0  0  2           0  0  0
   -0.6533   -0.0000    1.1838 N   0  0  0  0  0  3           0  0  0
   -2.7097    0.0098   -0.0006 N   0  0  0  0  0  3           0  0  0
    0.5988   -0.9696   -3.1866 N   0  0  0  0  0  3           0  0  0
   -2.7277    0.0152    2.3509 N   0  0  0  0  0  3           0  0  0
   -2.8199    0.0363   -2.3398 N   0  0  0  0  0  3           0  0  0
    0.0000    0.0000    0.0000 C   0  0  0  0  0  4           0  0  0
   -6.8798    0.0054    3.1364 C   0  0  0  0  0  4           0  0  0
   -2.0025    0.0074    1.1522 C   0  0  0  0  0  4           0  0  0
   -2.0470   -0.0081   -1.1850 C   0  0  0  0  0  4           0  0  0
   -4.1050    0.0235    2.5846 C   0  0  0  0  0  4           0  0  0
   -0.6544    0.0002   -1.2262 C   0  0  0  0  0  4           0  0  0
   -5.9822   -0.5920    4.0225 C   0  0  0  0  0  4           0  0  0
   -6.3884    0.6091    1.9763 C   0  0  0  0  0  4           0  0  0
   -4.6102   -0.5813    3.7455 C   0  0  0  0  0  4           0  0  0
   -5.0171    0.6186    1.7029 C   0  0  0  0  0  4           0  0  0
    1.9738   -0.0000    1.3009 C   0  0  0  0  0  4           0  0  0
   -8.6103   -0.5876    4.5115 C   0  0  0  0  0  4           0  0  0
    0.1372    0.0111   -2.4692 C   0  0  0  0  0  4           0  0  0
    3.4930   -0.0000    1.1538 C   0  0  2  0  0  4           0  0  0
    3.9841    1.2398    0.3871 C   0  0  0  0  0  4           0  0  0
    3.9633   -1.2880    0.4640 C   0  0  0  0  0  4           0  0  0
    5.4975    1.2166    0.1835 C   0  0  0  0  0  4           0  0  0
    5.4766   -1.3044    0.2632 C   0  0  0  0  0  4           0  0  0
    5.9567   -0.0705   -0.4940 C   0  0  0  0  0  4           0  0  0
  1  6  1  0     0  0
  2  9  1  0     0  0
  2 19  1  0     0  0
  3 10  1  0     0  0
  3 20  1  0     0  0
  4  9  2  0     0  0
  4 11  1  0     0  0
  5 11  2  0     0  0
  5 12  1  0     0  0
  6 21  2  0     0  0
  7 11  1  0     0  0
  7 13  1  0     0  0
  8 12  1  0     0  0
  9 14  1  0     0  0
 10 15  2  0     0  0
 10 16  1  0     0  0
 12 14  2  0     0  0
 13 17  2  0     0  0
 13 18  1  0     0  0
 14 21  1  0     0  0
 15 17  1  0     0  0
 16 18  2  0     0  0
 19 22  1  0     0  0
 22 23  1  0     0  0
 22 24  1  0     0  0
 23 25  1  0     0  0
 24 26  1  0     0  0
 25 27  1  0     0  0
 26 27  1  0     0  0
M  END
> <Compound >
12

> <standard_type>
pIC50

> <# Confs.>
25

> <canonical_smiles>
NC1=C(/C([H])=N/O)C(OCC2CCCCC2)=NC(NC3=CC=C(OC)C=C3)=N1

> <standard_relation>
=

> <predicted_activity_value>
5.6118987984294835

> <actual_activity_value>
5.080921907623926

> <Publication ID>
nan

> <standard_units>
nM

> hash
18056919525170555622

$$$$
12_
XXILIB    08252103513D 0   0.00000     0.00000

 27 29  0     1  0            999 V2000
    1.2268   -1.9118   -2.0643 O   0  0  0  0  0  2           0  0  0
    1.3872   -0.0000    0.0000 O   0  0  0  0  0  2           0  0  0
   -0.9892    0.0350    7.6675 O   0  0  0  0  0  2           0  0  0
   -0.6533   -0.0000    1.1838 N   0  0  0  0  0  3           0  0  0
   -2.7097    0.0098   -0.0006 N   0  0  0  0  0  3           0  0  0
    1.0141   -0.8354   -2.9209 N   0  0  0  0  0  3           0  0  0
   -2.7277    0.0152    2.3509 N   0  0  0  0  0  3           0  0  0
   -2.8199    0.0363   -2.3398 N   0  0  0  0  0  3           0  0  0
    0.0000    0.0000    0.0000 C   0  0  0  0  0  4           0  0  0
   -1.3448   -0.0152    6.3438 C   0  0  0  0  0  4           0  0  0
   -2.0025    0.0074    1.1522 C   0  0  0  0  0  4           0  0  0
   -2.0470   -0.0081   -1.1850 C   0  0  0  0  0  4           0  0  0
   -2.2954    0.0169    3.6794 C   0  0  0  0  0  4           0  0  0
   -0.6544    0.0002   -1.2262 C   0  0  0  0  0  4           0  0  0
   -0.6048   -0.6177    5.3254 C   0  0  0  0  0  4           0  0  0
   -2.5584    0.6006    6.0282 C   0  0  0  0  0  4           0  0  0
   -1.0790   -0.6000    4.0085 C   0  0  0  0  0  4           0  0  0
   -3.0289    0.6171    4.7115 C   0  0  0  0  0  4           0  0  0
    1.9738   -0.0000    1.3009 C   0  0  0  0  0  4           0  0  0
    0.2624   -0.6263    7.8540 C   0  0  0  0  0  4           0  0  0
    0.1372    0.0111   -2.4692 C   0  0  0  0  0  4           0  0  0
    3.4930   -0.0000    1.1538 C   0  0  2  0  0  4           0  0  0
    3.9841    1.2398    0.3871 C   0  0  0  0  0  4           0  0  0
    3.9633   -1.2880    0.4640 C   0  0  0  0  0  4           0  0  0
    5.4975    1.2166    0.1835 C   0  0  0  0  0  4           0  0  0
    5.4766   -1.3044    0.2632 C   0  0  0  0  0  4           0  0  0
    5.9567   -0.0705   -0.4940 C   0  0  0  0  0  4           0  0  0
  1  6  1  0     0  0
  2  9  1  0     0  0
  2 19  1  0     0  0
  3 10  1  0     0  0
  3 20  1  0     0  0
  4  9  2  0     0  0
  4 11  1  0     0  0
  5 11  2  0     0  0
  5 12  1  0     0  0
  6 21  2  0     0  0
  7 11  1  0     0  0
  7 13  1  0     0  0
  8 12  1  0     0  0
  9 14  1  0     0  0
 10 15  2  0     0  0
 10 16  1  0     0  0
 12 14  2  0     0  0
 13 17  2  0     0  0
 13 18  1  0     0  0
 14 21  1  0     0  0
 15 17  1  0     0  0
 16 18  2  0     0  0
 19 22  1  0     0  0
 22 23  1  0     0  0
 22 24  1  0     0  0
 23 25  1  0     0  0
 24 26  1  0     0  0
 25 27  1  0     0  0
 26 27  1  0     0  0
M  END
> <Compound >
12

> <standard_type>
pIC50

> <# Confs.>
25

> <canonical_smiles>
NC1=C(/C([H])=N/O)C(OCC2CCCCC2)=NC(NC3=CC=C(OC)C=C3)=N1

> <standard_relation>
=

> <predicted_activity_value>
5.6118987984294835

> <actual_activity_value>
5.080921907623926

> <Publication ID>
nan

> <standard_units>
nM

> hash
18056919525170555622

$$$$
12_
XXILIB    08252103513D 0   0.00000     0.00000

 27 29  0     1  0            999 V2000
    0.2879   -2.2222   -2.6650 O   0  0  0  0  0  2           0  0  0
    1.3872   -0.0000    0.0000 O   0  0  0  0  0  2           0  0  0
   -8.2410    0.0615    3.2945 O   0  0  0  0  0  2           0  0  0
   -0.6533   -0.0000    1.1838 N   0  0  0  0  0  3           0  0  0
   -2.7097    0.0098   -0.0006 N   0  0  0  0  0  3           0  0  0
    0.5988   -0.9696   -3.1866 N   0  0  0  0  0  3           0  0  0
   -2.7277    0.0152    2.3509 N   0  0  0  0  0  3           0  0  0
   -2.8199    0.0363   -2.3398 N   0  0  0  0  0  3           0  0  0
    0.0000    0.0000    0.0000 C   0  0  0  0  0  4           0  0  0
   -6.8798    0.0054    3.1364 C   0  0  0  0  0  4           0  0  0
   -2.0025    0.0074    1.1522 C   0  0  0  0  0  4           0  0  0
   -2.0470   -0.0081   -1.1850 C   0  0  0  0  0  4           0  0  0
   -4.1050    0.0235    2.5846 C   0  0  0  0  0  4           0  0  0
   -0.6544    0.0002   -1.2262 C   0  0  0  0  0  4           0  0  0
   -5.9822   -0.5920    4.0225 C   0  0  0  0  0  4           0  0  0
   -6.3884    0.6091    1.9763 C   0  0  0  0  0  4           0  0  0
   -4.6102   -0.5813    3.7455 C   0  0  0  0  0  4           0  0  0
   -5.0171    0.6186    1.7029 C   0  0  0  0  0  4           0  0  0
    1.9738   -0.0000    1.3009 C   0  0  0  0  0  4           0  0  0
   -8.6103   -0.5876    4.5115 C   0  0  0  0  0  4           0  0  0
    0.1372    0.0111   -2.4692 C   0  0  0  0  0  4           0  0  0
    3.4930   -0.0000    1.1538 C   0  0  2  0  0  4           0  0  0
    4.1910   -0.0000    2.5246 C   0  0  0  0  0  4           0  0  0
    3.9485    1.1994    0.3112 C   0  0  0  0  0  4           0  0  0
    5.7107    0.0608    2.3858 C   0  0  0  0  0  4           0  0  0
    5.4683    1.2544    0.1769 C   0  0  0  0  0  4           0  0  0
    6.1536    1.2500    1.5396 C   0  0  0  0  0  4           0  0  0
  1  6  1  0     0  0
  2  9  1  0     0  0
  2 19  1  0     0  0
  3 10  1  0     0  0
  3 20  1  0     0  0
  4  9  2  0     0  0
  4 11  1  0     0  0
  5 11  2  0     0  0
  5 12  1  0     0  0
  6 21  2  0     0  0
  7 11  1  0     0  0
  7 13  1  0     0  0
  8 12  1  0     0  0
  9 14  1  0     0  0
 10 15  2  0     0  0
 10 16  1  0     0  0
 12 14  2  0     0  0
 13 17  2  0     0  0
 13 18  1  0     0  0
 14 21  1  0     0  0
 15 17  1  0     0  0
 16 18  2  0     0  0
 19 22  1  0     0  0
 22 23  1  0     0  0
 22 24  1  0     0  0
 23 25  1  0     0  0
 24 26  1  0     0  0
 25 27  1  0     0  0
 26 27  1  0     0  0
M  END
> <Compound >
12

> <standard_type>
pIC50

> <# Confs.>
25

> <canonical_smiles>
NC1=C(/C([H])=N/O)C(OCC2CCCCC2)=NC(NC3=CC=C(OC)C=C3)=N1

> <standard_relation>
=

> <predicted_activity_value>
5.6118987984294835

> <actual_activity_value>
5.080921907623926

> <Publication ID>
nan

> <standard_units>
nM

> hash
18056919525170555622

$$$$
12_
XXILIB    08252103513D 0   0.00000     0.00000

 27 29  0     1  0            999 V2000
    0.2330    2.2478   -2.6606 O   0  0  0  0  0  2           0  0  0
    1.3872   -0.0000    0.0000 O   0  0  0  0  0  2           0  0  0
   -0.9902    0.0089    7.6679 O   0  0  0  0  0  2           0  0  0
   -0.6533   -0.0000    1.1838 N   0  0  0  0  0  3           0  0  0
   -2.7097    0.0098   -0.0006 N   0  0  0  0  0  3           0  0  0
    0.5841    1.0044   -3.1785 N   0  0  0  0  0  3           0  0  0
   -2.7277    0.0152    2.3509 N   0  0  0  0  0  3           0  0  0
   -2.8199    0.0363   -2.3398 N   0  0  0  0  0  3           0  0  0
    0.0000    0.0000    0.0000 C   0  0  0  0  0  4           0  0  0
   -1.4877   -0.0304    6.3903 C   0  0  0  0  0  4           0  0  0
   -2.0025    0.0074    1.1522 C   0  0  0  0  0  4           0  0  0
   -2.0470   -0.0081   -1.1850 C   0  0  0  0  0  4           0  0  0
   -2.2954    0.0169    3.6794 C   0  0  0  0  0  4           0  0  0
   -0.6544    0.0002   -1.2262 C   0  0  0  0  0  4           0  0  0
   -2.6963   -0.6129    6.0060 C   0  0  0  0  0  4           0  0  0
   -0.6867    0.5752    5.4191 C   0  0  0  0  0  4           0  0  0
   -3.0925   -0.5868    4.6637 C   0  0  0  0  0  4           0  0  0
   -1.0851    0.5989    4.0790 C   0  0  0  0  0  4           0  0  0
    1.9738   -0.0000    1.3009 C   0  0  0  0  0  4           0  0  0
   -1.8991   -0.6401    8.5573 C   0  0  0  0  0  4           0  0  0
    0.1372    0.0111   -2.4692 C   0  0  0  0  0  4           0  0  0
    3.4930   -0.0000    1.1538 C   0  0  2  0  0  4           0  0  0
    3.9841   -1.2398    0.3871 C   0  0  0  0  0  4           0  0  0
    4.1634    0.0886    2.5317 C   0  0  0  0  0  4           0  0  0
    5.5076   -1.2774    0.2884 C   0  0  0  0  0  4           0  0  0
    5.6860    0.0501    2.4258 C   0  0  0  0  0  4           0  0  0
    6.1653   -1.1796    1.6611 C   0  0  0  0  0  4           0  0  0
  1  6  1  0     0  0
  2  9  1  0     0  0
  2 19  1  0     0  0
  3 10  1  0     0  0
  3 20  1  0     0  0
  4  9  2  0     0  0
  4 11  1  0     0  0
  5 11  2  0     0  0
  5 12  1  0     0  0
  6 21  2  0     0  0
  7 11  1  0     0  0
  7 13  1  0     0  0
  8 12  1  0     0  0
  9 14  1  0     0  0
 10 15  2  0     0  0
 10 16  1  0     0  0
 12 14  2  0     0  0
 13 17  2  0     0  0
 13 18  1  0     0  0
 14 21  1  0     0  0
 15 17  1  0     0  0
 16 18  2  0     0  0
 19 22  1  0     0  0
 22 23  1  0     0  0
 22 24  1  0     0  0
 23 25  1  0     0  0
 24 26  1  0     0  0
 25 27  1  0     0  0
 26 27  1  0     0  0
M  END
> <Compound >
12

> <standard_type>
pIC50

> <# Confs.>
25

> <canonical_smiles>
NC1=C(/C([H])=N/O)C(OCC2CCCCC2)=NC(NC3=CC=C(OC)C=C3)=N1

> <standard_relation>
=

> <predicted_activity_value>
5.6118987984294835

> <actual_activity_value>
5.080921907623926

> <Publication ID>
nan

> <standard_units>
nM

> hash
18056919525170555622

$$$$
12_
XXILIB    08252103513D 0   0.00000     0.00000

 27 29  0     1  0            999 V2000
    0.2879   -2.2222   -2.6650 O   0  0  0  0  0  2           0  0  0
    1.3872   -0.0000   -0.0000 O   0  0  0  0  0  2           0  0  0
   -1.0035    0.0357    7.6722 O   0  0  0  0  0  2           0  0  0
   -0.6533   -0.0000    1.1838 N   0  0  0  0  0  3           0  0  0
   -2.7097    0.0098   -0.0006 N   0  0  0  0  0  3           0  0  0
    0.5988   -0.9696   -3.1866 N   0  0  0  0  0  3           0  0  0
   -2.7277    0.0152    2.3509 N   0  0  0  0  0  3           0  0  0
   -2.8199    0.0363   -2.3398 N   0  0  0  0  0  3           0  0  0
    0.0000    0.0000    0.0000 C   0  0  0  0  0  4           0  0  0
   -1.3532    0.0715    6.3464 C   0  0  0  0  0  4           0  0  0
   -2.0025    0.0074    1.1522 C   0  0  0  0  0  4           0  0  0
   -2.0470   -0.0081   -1.1850 C   0  0  0  0  0  4           0  0  0
   -2.2954    0.0169    3.6794 C   0  0  0  0  0  4           0  0  0
   -0.6544    0.0002   -1.2262 C   0  0  0  0  0  4           0  0  0
   -0.6027    0.6521    5.3230 C   0  0  0  0  0  4           0  0  0
   -2.5719   -0.5358    6.0341 C   0  0  0  0  0  4           0  0  0
   -1.0722    0.6224    4.0047 C   0  0  0  0  0  4           0  0  0
   -3.0384   -0.5631    4.7162 C   0  0  0  0  0  4           0  0  0
    1.9738   -0.6504    1.1266 C   0  0  0  0  0  4           0  0  0
    0.2543    0.6861    7.8548 C   0  0  0  0  0  4           0  0  0
    0.1372    0.0111   -2.4692 C   0  0  0  0  0  4           0  0  0
    3.4930   -0.5769    0.9992 C   0  0  2  0  0  4           0  0  0
    3.9841    0.8802    0.9552 C   0  0  0  0  0  4           0  0  0
    3.9633   -1.3474   -0.2422 C   0  0  0  0  0  4           0  0  0
    5.4975    0.9618    0.7672 C   0  0  0  0  0  4           0  0  0
    5.4766   -1.2613   -0.4243 C   0  0  0  0  0  4           0  0  0
    5.9567    0.1859   -0.4630 C   0  0  0  0  0  4           0  0  0
  1  6  1  0     0  0
  2  9  1  0     0  0
  2 19  1  0     0  0
  3 10  1  0     0  0
  3 20  1  0     0  0
  4  9  2  0     0  0
  4 11  1  0     0  0
  5 11  2  0     0  0
  5 12  1  0     0  0
  6 21  2  0     0  0
  7 11  1  0     0  0
  7 13  1  0     0  0
  8 12  1  0     0  0
  9 14  1  0     0  0
 10 15  2  0     0  0
 10 16  1  0     0  0
 12 14  2  0     0  0
 13 17  2  0     0  0
 13 18  1  0     0  0
 14 21  1  0     0  0
 15 17  1  0     0  0
 16 18  2  0     0  0
 19 22  1  0     0  0
 22 23  1  0     0  0
 22 24  1  0     0  0
 23 25  1  0     0  0
 24 26  1  0     0  0
 25 27  1  0     0  0
 26 27  1  0     0  0
M  END
> <Compound >
12

> <standard_type>
pIC50

> <# Confs.>
25

> <canonical_smiles>
NC1=C(/C([H])=N/O)C(OCC2CCCCC2)=NC(NC3=CC=C(OC)C=C3)=N1

> <standard_relation>
=

> <predicted_activity_value>
5.6118987984294835

> <actual_activity_value>
5.080921907623926

> <Publication ID>
nan

> <standard_units>
nM

> hash
18056919525170555622

$$$$
12_
XXILIB    08252103513D 0   0.00000     0.00000

 27 29  0     1  0            999 V2000
    0.2330    2.2478   -2.6606 O   0  0  0  0  0  2           0  0  0
    1.3872   -0.0000    0.0000 O   0  0  0  0  0  2           0  0  0
   -1.0045    0.0095    7.6726 O   0  0  0  0  0  2           0  0  0
   -0.6533   -0.0000    1.1838 N   0  0  0  0  0  3           0  0  0
   -2.7097    0.0098   -0.0006 N   0  0  0  0  0  3           0  0  0
    0.5841    1.0044   -3.1785 N   0  0  0  0  0  3           0  0  0
   -2.7277    0.0152    2.3509 N   0  0  0  0  0  3           0  0  0
   -2.8199    0.0363   -2.3398 N   0  0  0  0  0  3           0  0  0
    0.0000    0.0000    0.0000 C   0  0  0  0  0  4           0  0  0
   -1.4960    0.0563    6.3929 C   0  0  0  0  0  4           0  0  0
   -2.0025    0.0074    1.1522 C   0  0  0  0  0  4           0  0  0
   -2.0470   -0.0081   -1.1850 C   0  0  0  0  0  4           0  0  0
   -2.2954    0.0169    3.6794 C   0  0  0  0  0  4           0  0  0
   -0.6544    0.0002   -1.2262 C   0  0  0  0  0  4           0  0  0
   -2.6941    0.6570    6.0036 C   0  0  0  0  0  4           0  0  0
   -0.7001   -0.5612    5.4251 C   0  0  0  0  0  4           0  0  0
   -3.0857    0.6357    4.6599 C   0  0  0  0  0  4           0  0  0
   -1.0946   -0.5813    4.0837 C   0  0  0  0  0  4           0  0  0
    1.9738   -0.0000    1.3009 C   0  0  0  0  0  4           0  0  0
   -1.9073    0.6723    8.5582 C   0  0  0  0  0  4           0  0  0
    0.1372    0.0111   -2.4692 C   0  0  0  0  0  4           0  0  0
    3.4930   -0.0000    1.1538 C   0  0  2  0  0  4           0  0  0
    3.9841   -1.2398    0.3871 C   0  0  0  0  0  4           0  0  0
    4.1634    0.0886    2.5317 C   0  0  0  0  0  4           0  0  0
    5.5076   -1.2774    0.2884 C   0  0  0  0  0  4           0  0  0
    5.6860    0.0501    2.4258 C   0  0  0  0  0  4           0  0  0
    6.1653   -1.1796    1.6611 C   0  0  0  0  0  4           0  0  0
  1  6  1  0     0  0
  2  9  1  0     0  0
  2 19  1  0     0  0
  3 10  1  0     0  0
  3 20  1  0     0  0
  4  9  2  0     0  0
  4 11  1  0     0  0
  5 11  2  0     0  0
  5 12  1  0     0  0
  6 21  2  0     0  0
  7 11  1  0     0  0
  7 13  1  0     0  0
  8 12  1  0     0  0
  9 14  1  0     0  0
 10 15  2  0     0  0
 10 16  1  0     0  0
 12 14  2  0     0  0
 13 17  2  0     0  0
 13 18  1  0     0  0
 14 21  1  0     0  0
 15 17  1  0     0  0
 16 18  2  0     0  0
 19 22  1  0     0  0
 22 23  1  0     0  0
 22 24  1  0     0  0
 23 25  1  0     0  0
 24 26  1  0     0  0
 25 27  1  0     0  0
 26 27  1  0     0  0
M  END
> <Compound >
12

> <standard_type>
pIC50

> <# Confs.>
25

> <canonical_smiles>
NC1=C(/C([H])=N/O)C(OCC2CCCCC2)=NC(NC3=CC=C(OC)C=C3)=N1

> <standard_relation>
=

> <predicted_activity_value>
5.6118987984294835

> <actual_activity_value>
5.080921907623926

> <Publication ID>
nan

> <standard_units>
nM

> hash
18056919525170555622

$$$$
12_
XXILIB    08252103513D 0   0.00000     0.00000

 27 29  0     1  0            999 V2000
    0.2879   -2.2222   -2.6650 O   0  0  0  0  0  2           0  0  0
    1.3872   -0.0000   -0.0000 O   0  0  0  0  0  2           0  0  0
   -1.0035    0.0357    7.6722 O   0  0  0  0  0  2           0  0  0
   -0.6533   -0.0000    1.1838 N   0  0  0  0  0  3           0  0  0
   -2.7097    0.0098   -0.0006 N   0  0  0  0  0  3           0  0  0
    0.5988   -0.9696   -3.1866 N   0  0  0  0  0  3           0  0  0
   -2.7277    0.0152    2.3509 N   0  0  0  0  0  3           0  0  0
   -2.8199    0.0363   -2.3398 N   0  0  0  0  0  3           0  0  0
    0.0000    0.0000    0.0000 C   0  0  0  0  0  4           0  0  0
   -1.3532    0.0715    6.3464 C   0  0  0  0  0  4           0  0  0
   -2.0025    0.0074    1.1522 C   0  0  0  0  0  4           0  0  0
   -2.0470   -0.0081   -1.1850 C   0  0  0  0  0  4           0  0  0
   -2.2954    0.0169    3.6794 C   0  0  0  0  0  4           0  0  0
   -0.6544    0.0002   -1.2262 C   0  0  0  0  0  4           0  0  0
   -0.6027    0.6521    5.3230 C   0  0  0  0  0  4           0  0  0
   -2.5719   -0.5358    6.0341 C   0  0  0  0  0  4           0  0  0
   -1.0722    0.6224    4.0047 C   0  0  0  0  0  4           0  0  0
   -3.0384   -0.5631    4.7162 C   0  0  0  0  0  4           0  0  0
    1.9738   -0.6504    1.1266 C   0  0  0  0  0  4           0  0  0
    0.2543    0.6861    7.8548 C   0  0  0  0  0  4           0  0  0
    0.1372    0.0111   -2.4692 C   0  0  0  0  0  4           0  0  0
    3.4930   -0.5769    0.9992 C   0  0  2  0  0  4           0  0  0
    4.1910   -1.2623    2.1863 C   0  0  0  0  0  4           0  0  0
    3.9485    0.8831    0.8692 C   0  0  0  0  0  4           0  0  0
    5.7107   -1.1402    2.0965 C   0  0  0  0  0  4           0  0  0
    5.4683    0.9979    0.7804 C   0  0  0  0  0  4           0  0  0
    6.1536    0.3128    1.9583 C   0  0  0  0  0  4           0  0  0
  1  6  1  0     0  0
  2  9  1  0     0  0
  2 19  1  0     0  0
  3 10  1  0     0  0
  3 20  1  0     0  0
  4  9  2  0     0  0
  4 11  1  0     0  0
  5 11  2  0     0  0
  5 12  1  0     0  0
  6 21  2  0     0  0
  7 11  1  0     0  0
  7 13  1  0     0  0
  8 12  1  0     0  0
  9 14  1  0     0  0
 10 15  2  0     0  0
 10 16  1  0     0  0
 12 14  2  0     0  0
 13 17  2  0     0  0
 13 18  1  0     0  0
 14 21  1  0     0  0
 15 17  1  0     0  0
 16 18  2  0     0  0
 19 22  1  0     0  0
 22 23  1  0     0  0
 22 24  1  0     0  0
 23 25  1  0     0  0
 24 26  1  0     0  0
 25 27  1  0     0  0
 26 27  1  0     0  0
M  END
> <Compound >
12

> <standard_type>
pIC50

> <# Confs.>
25

> <canonical_smiles>
NC1=C(/C([H])=N/O)C(OCC2CCCCC2)=NC(NC3=CC=C(OC)C=C3)=N1

> <standard_relation>
=

> <predicted_activity_value>
5.6118987984294835

> <actual_activity_value>
5.080921907623926

> <Publication ID>
nan

> <standard_units>
nM

> hash
18056919525170555622

$$$$
12_
XXILIB    08252103513D 0   0.00000     0.00000

 27 29  0     1  0            999 V2000
    0.2879   -2.2222   -2.6650 O   0  0  0  0  0  2           0  0  0
    1.3872   -0.0000    0.0000 O   0  0  0  0  0  2           0  0  0
   -0.9902    0.0089    7.6679 O   0  0  0  0  0  2           0  0  0
   -0.6533   -0.0000    1.1838 N   0  0  0  0  0  3           0  0  0
   -2.7097    0.0098   -0.0006 N   0  0  0  0  0  3           0  0  0
    0.5988   -0.9696   -3.1866 N   0  0  0  0  0  3           0  0  0
   -2.7277    0.0152    2.3509 N   0  0  0  0  0  3           0  0  0
   -2.8199    0.0363   -2.3398 N   0  0  0  0  0  3           0  0  0
    0.0000    0.0000    0.0000 C   0  0  0  0  0  4           0  0  0
   -1.4877   -0.0304    6.3903 C   0  0  0  0  0  4           0  0  0
   -2.0025    0.0074    1.1522 C   0  0  0  0  0  4           0  0  0
   -2.0470   -0.0081   -1.1850 C   0  0  0  0  0  4           0  0  0
   -2.2954    0.0169    3.6794 C   0  0  0  0  0  4           0  0  0
   -0.6544    0.0002   -1.2262 C   0  0  0  0  0  4           0  0  0
   -2.6963   -0.6129    6.0060 C   0  0  0  0  0  4           0  0  0
   -0.6867    0.5752    5.4191 C   0  0  0  0  0  4           0  0  0
   -3.0925   -0.5868    4.6637 C   0  0  0  0  0  4           0  0  0
   -1.0851    0.5989    4.0790 C   0  0  0  0  0  4           0  0  0
    1.9738   -0.6504    1.1266 C   0  0  0  0  0  4           0  0  0
   -0.1860   -1.1465    7.9059 C   0  0  0  0  0  4           0  0  0
    0.1372    0.0111   -2.4692 C   0  0  0  0  0  4           0  0  0
    3.3165   -1.2425    0.7068 C   0  0  2  0  0  4           0  0  0
    4.2795   -0.1532    0.2047 C   0  0  0  0  0  4           0  0  0
    3.1127   -2.3241   -0.3631 C   0  0  0  0  0  4           0  0  0
    5.6036   -0.7452   -0.2736 C   0  0  0  0  0  4           0  0  0
    4.4400   -2.9111   -0.8369 C   0  0  0  0  0  4           0  0  0
    5.3910   -1.8251   -1.3295 C   0  0  0  0  0  4           0  0  0
  1  6  1  0     0  0
  2  9  1  0     0  0
  2 19  1  0     0  0
  3 10  1  0     0  0
  3 20  1  0     0  0
  4  9  2  0     0  0
  4 11  1  0     0  0
  5 11  2  0     0  0
  5 12  1  0     0  0
  6 21  2  0     0  0
  7 11  1  0     0  0
  7 13  1  0     0  0
  8 12  1  0     0  0
  9 14  1  0     0  0
 10 15  2  0     0  0
 10 16  1  0     0  0
 12 14  2  0     0  0
 13 17  2  0     0  0
 13 18  1  0     0  0
 14 21  1  0     0  0
 15 17  1  0     0  0
 16 18  2  0     0  0
 19 22  1  0     0  0
 22 23  1  0     0  0
 22 24  1  0     0  0
 23 25  1  0     0  0
 24 26  1  0     0  0
 25 27  1  0     0  0
 26 27  1  0     0  0
M  END
> <Compound >
12

> <standard_type>
pIC50

> <# Confs.>
25

> <canonical_smiles>
NC1=C(/C([H])=N/O)C(OCC2CCCCC2)=NC(NC3=CC=C(OC)C=C3)=N1

> <standard_relation>
=

> <predicted_activity_value>
5.6118987984294835

> <actual_activity_value>
5.080921907623926

> <Publication ID>
nan

> <standard_units>
nM

> hash
18056919525170555622

$$$$
12_
XXILIB    08252103513D 0   0.00000     0.00000

 27 29  0     1  0            999 V2000
    1.1792    1.9594   -2.0605 O   0  0  0  0  0  2           0  0  0
    1.3872   -0.0000    0.0000 O   0  0  0  0  0  2           0  0  0
   -0.9902    0.0089    7.6679 O   0  0  0  0  0  2           0  0  0
   -0.6533   -0.0000    1.1838 N   0  0  0  0  0  3           0  0  0
   -2.7097    0.0098   -0.0006 N   0  0  0  0  0  3           0  0  0
    1.0014    0.8742   -2.9139 N   0  0  0  0  0  3           0  0  0
   -2.7277    0.0152    2.3509 N   0  0  0  0  0  3           0  0  0
   -2.8199    0.0363   -2.3398 N   0  0  0  0  0  3           0  0  0
    0.0000    0.0000    0.0000 C   0  0  0  0  0  4           0  0  0
   -1.4877   -0.0304    6.3903 C   0  0  0  0  0  4           0  0  0
   -2.0025    0.0074    1.1522 C   0  0  0  0  0  4           0  0  0
   -2.0470   -0.0081   -1.1850 C   0  0  0  0  0  4           0  0  0
   -2.2954    0.0169    3.6794 C   0  0  0  0  0  4           0  0  0
   -0.6544    0.0002   -1.2262 C   0  0  0  0  0  4           0  0  0
   -2.6963   -0.6129    6.0060 C   0  0  0  0  0  4           0  0  0
   -0.6867    0.5752    5.4191 C   0  0  0  0  0  4           0  0  0
   -3.0925   -0.5868    4.6637 C   0  0  0  0  0  4           0  0  0
   -1.0851    0.5989    4.0790 C   0  0  0  0  0  4           0  0  0
    1.9738   -0.0000    1.3009 C   0  0  0  0  0  4           0  0  0
   -1.8991   -0.6401    8.5573 C   0  0  0  0  0  4           0  0  0
    0.1372    0.0111   -2.4692 C   0  0  0  0  0  4           0  0  0
    3.4930   -0.0000    1.1538 C   0  0  2  0  0  4           0  0  0
    4.1910   -0.0000    2.5246 C   0  0  0  0  0  4           0  0  0
    3.9485    1.1994    0.3112 C   0  0  0  0  0  4           0  0  0
    5.7107    0.0608    2.3858 C   0  0  0  0  0  4           0  0  0
    5.4683    1.2544    0.1769 C   0  0  0  0  0  4           0  0  0
    6.1536    1.2500    1.5396 C   0  0  0  0  0  4           0  0  0
  1  6  1  0     0  0
  2  9  1  0     0  0
  2 19  1  0     0  0
  3 10  1  0     0  0
  3 20  1  0     0  0
  4  9  2  0     0  0
  4 11  1  0     0  0
  5 11  2  0     0  0
  5 12  1  0     0  0
  6 21  2  0     0  0
  7 11  1  0     0  0
  7 13  1  0     0  0
  8 12  1  0     0  0
  9 14  1  0     0  0
 10 15  2  0     0  0
 10 16  1  0     0  0
 12 14  2  0     0  0
 13 17  2  0     0  0
 13 18  1  0     0  0
 14 21  1  0     0  0
 15 17  1  0     0  0
 16 18  2  0     0  0
 19 22  1  0     0  0
 22 23  1  0     0  0
 22 24  1  0     0  0
 23 25  1  0     0  0
 24 26  1  0     0  0
 25 27  1  0     0  0
 26 27  1  0     0  0
M  END
> <Compound >
12

> <standard_type>
pIC50

> <# Confs.>
25

> <canonical_smiles>
NC1=C(/C([H])=N/O)C(OCC2CCCCC2)=NC(NC3=CC=C(OC)C=C3)=N1

> <standard_relation>
=

> <predicted_activity_value>
5.6118987984294835

> <actual_activity_value>
5.080921907623926

> <Publication ID>
nan

> <standard_units>
nM

> hash
18056919525170555622

$$$$
12_
XXILIB    08252103513D 0   0.00000     0.00000

 27 29  0     1  0            999 V2000
    0.2879   -2.2222   -2.6650 O   0  0  0  0  0  2           0  0  0
    1.3872   -0.0000    0.0000 O   0  0  0  0  0  2           0  0  0
   -8.2436    0.0620    3.2797 O   0  0  0  0  0  2           0  0  0
   -0.6533   -0.0000    1.1838 N   0  0  0  0  0  3           0  0  0
   -2.7097    0.0098   -0.0006 N   0  0  0  0  0  3           0  0  0
    0.5988   -0.9696   -3.1866 N   0  0  0  0  0  3           0  0  0
   -2.7277    0.0152    2.3509 N   0  0  0  0  0  3           0  0  0
   -2.8199    0.0363   -2.3398 N   0  0  0  0  0  3           0  0  0
    0.0000    0.0000    0.0000 C   0  0  0  0  0  4           0  0  0
   -6.8808    0.0920    3.1269 C   0  0  0  0  0  4           0  0  0
   -2.0025    0.0074    1.1522 C   0  0  0  0  0  4           0  0  0
   -2.0470   -0.0081   -1.1850 C   0  0  0  0  0  4           0  0  0
   -4.1050    0.0235    2.5846 C   0  0  0  0  0  4           0  0  0
   -0.6544    0.0002   -1.2262 C   0  0  0  0  0  4           0  0  0
   -5.9761    0.6777    4.0135 C   0  0  0  0  0  4           0  0  0
   -6.3960   -0.5274    1.9725 C   0  0  0  0  0  4           0  0  0
   -4.6034    0.6412    3.7417 C   0  0  0  0  0  4           0  0  0
   -5.0242   -0.5616    1.7036 C   0  0  0  0  0  4           0  0  0
    1.9738   -0.0000    1.3009 C   0  0  0  0  0  4           0  0  0
   -8.8210    1.2150    2.6668 C   0  0  0  0  0  4           0  0  0
    0.1372    0.0111   -2.4692 C   0  0  0  0  0  4           0  0  0
    3.4930   -0.0000    1.1538 C   0  0  2  0  0  4           0  0  0
    3.9841   -1.2398    0.3871 C   0  0  0  0  0  4           0  0  0
    4.1634    0.0886    2.5317 C   0  0  0  0  0  4           0  0  0
    5.5076   -1.2774    0.2884 C   0  0  0  0  0  4           0  0  0
    5.6860    0.0501    2.4258 C   0  0  0  0  0  4           0  0  0
    6.1653   -1.1796    1.6611 C   0  0  0  0  0  4           0  0  0
  1  6  1  0     0  0
  2  9  1  0     0  0
  2 19  1  0     0  0
  3 10  1  0     0  0
  3 20  1  0     0  0
  4  9  2  0     0  0
  4 11  1  0     0  0
  5 11  2  0     0  0
  5 12  1  0     0  0
  6 21  2  0     0  0
  7 11  1  0     0  0
  7 13  1  0     0  0
  8 12  1  0     0  0
  9 14  1  0     0  0
 10 15  2  0     0  0
 10 16  1  0     0  0
 12 14  2  0     0  0
 13 17  2  0     0  0
 13 18  1  0     0  0
 14 21  1  0     0  0
 15 17  1  0     0  0
 16 18  2  0     0  0
 19 22  1  0     0  0
 22 23  1  0     0  0
 22 24  1  0     0  0
 23 25  1  0     0  0
 24 26  1  0     0  0
 25 27  1  0     0  0
 26 27  1  0     0  0
M  END
> <Compound >
12

> <standard_type>
pIC50

> <# Confs.>
25

> <canonical_smiles>
NC1=C(/C([H])=N/O)C(OCC2CCCCC2)=NC(NC3=CC=C(OC)C=C3)=N1

> <standard_relation>
=

> <predicted_activity_value>
5.6118987984294835

> <actual_activity_value>
5.080921907623926

> <Publication ID>
nan

> <standard_units>
nM

> hash
18056919525170555622

$$$$
16_
XXILIB    08252103513D 0   0.00000     0.00000

 12 12  0     1  0            999 V2000
   -0.4979   -0.5409    3.3556 O   0  0  0  0  0  2           0  0  0
    1.3872   -0.0000   -0.0000 O   0  0  0  0  0  2           0  0  0
   -0.6618    0.0030   -1.1792 N   0  0  0  0  0  3           0  0  0
   -2.7127    0.0328    0.0250 N   0  0  0  0  0  3           0  0  0
    0.0678    0.0251    2.4124 N   0  0  0  0  0  3           0  0  0
   -2.7104    0.0272   -2.3245 N   0  0  0  0  0  3           0  0  0
   -2.7848    0.0699    2.3775 N   0  0  0  0  0  3           0  0  0
    0.0000    0.0000    0.0000 C   0  0  0  0  0  4           0  0  0
   -2.0090    0.0198   -1.1297 C   0  0  0  0  0  4           0  0  0
   -2.0374    0.0110    1.2015 C   0  0  0  0  0  4           0  0  0
   -0.6422    0.0000    1.2340 C   0  0  0  0  0  4           0  0  0
    1.9685    0.0000   -1.3012 C   0  0  0  0  0  4           0  0  0
  1  5  2  0     0  0
  2  8  1  0     0  0
  2 12  1  0     0  0
  3  8  2  0     0  0
  3  9  1  0     0  0
  4  9  2  0     0  0
  4 10  1  0     0  0
  5 11  1  0     0  0
  6  9  1  0     0  0
  7 10  1  0     0  0
  8 11  1  0     0  0
 10 11  2  0     0  0
M  END
> <Compound >
16

> <standard_type>
pIC50

> <# Confs.>
4

> <canonical_smiles>
NC1=NC(N)=C(N=O)C(OC)=N1

> <standard_relation>
=

> <predicted_activity_value>
3.7575430536731536

> <actual_activity_value>
4.102372908709558

> <Publication ID>
nan

> <standard_units>
nM

> hash
2351747802885158102

$$$$
16_
XXILIB    08252103513D 0   0.00000     0.00000

 12 12  0     1  0            999 V2000
    1.1552    0.6095    2.3352 O   0  0  0  0  0  2           0  0  0
    1.3872   -0.0000   -0.0000 O   0  0  0  0  0  2           0  0  0
   -0.6618    0.0030   -1.1792 N   0  0  0  0  0  3           0  0  0
   -2.7127    0.0328    0.0250 N   0  0  0  0  0  3           0  0  0
    0.0678    0.0251    2.4124 N   0  0  0  0  0  3           0  0  0
   -2.7104    0.0272   -2.3245 N   0  0  0  0  0  3           0  0  0
   -2.7848    0.0699    2.3775 N   0  0  0  0  0  3           0  0  0
    0.0000    0.0000    0.0000 C   0  0  0  0  0  4           0  0  0
   -2.0090    0.0198   -1.1297 C   0  0  0  0  0  4           0  0  0
   -2.0374    0.0110    1.2015 C   0  0  0  0  0  4           0  0  0
   -0.6422    0.0000    1.2340 C   0  0  0  0  0  4           0  0  0
    1.9685    0.0000   -1.3012 C   0  0  0  0  0  4           0  0  0
  1  5  2  0     0  0
  2  8  1  0     0  0
  2 12  1  0     0  0
  3  8  2  0     0  0
  3  9  1  0     0  0
  4  9  2  0     0  0
  4 10  1  0     0  0
  5 11  1  0     0  0
  6  9  1  0     0  0
  7 10  1  0     0  0
  8 11  1  0     0  0
 10 11  2  0     0  0
M  END
> <Compound >
16

> <standard_type>
pIC50

> <# Confs.>
4

> <canonical_smiles>
NC1=NC(N)=C(N=O)C(OC)=N1

> <standard_relation>
=

> <predicted_activity_value>
3.7575430536731536

> <actual_activity_value>
4.102372908709558

> <Publication ID>
nan

> <standard_units>
nM

> hash
2351747802885158102

$$$$
16_
XXILIB    08252103513D 0   0.00000     0.00000

 12 12  0     1  0            999 V2000
   -0.5193    0.5877    3.3445 O   0  0  0  0  0  2           0  0  0
    1.3872    0.0000   -0.0000 O   0  0  0  0  0  2           0  0  0
   -0.6618    0.0030   -1.1792 N   0  0  0  0  0  3           0  0  0
   -2.7127    0.0328    0.0250 N   0  0  0  0  0  3           0  0  0
    0.0678    0.0251    2.4124 N   0  0  0  0  0  3           0  0  0
   -2.7104    0.0272   -2.3245 N   0  0  0  0  0  3           0  0  0
   -2.7848    0.0699    2.3775 N   0  0  0  0  0  3           0  0  0
    0.0000    0.0000    0.0000 C   0  0  0  0  0  4           0  0  0
   -2.0090    0.0198   -1.1297 C   0  0  0  0  0  4           0  0  0
   -2.0374    0.0110    1.2015 C   0  0  0  0  0  4           0  0  0
   -0.6422    0.0000    1.2340 C   0  0  0  0  0  4           0  0  0
    1.9685    1.3012    0.0000 C   0  0  0  0  0  4           0  0  0
  1  5  2  0     0  0
  2  8  1  0     0  0
  2 12  1  0     0  0
  3  8  2  0     0  0
  3  9  1  0     0  0
  4  9  2  0     0  0
  4 10  1  0     0  0
  5 11  1  0     0  0
  6  9  1  0     0  0
  7 10  1  0     0  0
  8 11  1  0     0  0
 10 11  2  0     0  0
M  END
> <Compound >
16

> <standard_type>
pIC50

> <# Confs.>
4

> <canonical_smiles>
NC1=NC(N)=C(N=O)C(OC)=N1

> <standard_relation>
=

> <predicted_activity_value>
3.7575430536731536

> <actual_activity_value>
4.102372908709558

> <Publication ID>
nan

> <standard_units>
nM

> hash
2351747802885158102

$$$$
16_
XXILIB    08252103513D 0   0.00000     0.00000

 12 12  0     1  0            999 V2000
    1.1766   -0.5191    2.3463 O   0  0  0  0  0  2           0  0  0
    1.3872    0.0000   -0.0000 O   0  0  0  0  0  2           0  0  0
   -0.6618    0.0030   -1.1792 N   0  0  0  0  0  3           0  0  0
   -2.7127    0.0328    0.0250 N   0  0  0  0  0  3           0  0  0
    0.0678    0.0251    2.4124 N   0  0  0  0  0  3           0  0  0
   -2.7104    0.0272   -2.3245 N   0  0  0  0  0  3           0  0  0
   -2.7848    0.0699    2.3775 N   0  0  0  0  0  3           0  0  0
    0.0000    0.0000    0.0000 C   0  0  0  0  0  4           0  0  0
   -2.0090    0.0198   -1.1297 C   0  0  0  0  0  4           0  0  0
   -2.0374    0.0110    1.2015 C   0  0  0  0  0  4           0  0  0
   -0.6422    0.0000    1.2340 C   0  0  0  0  0  4           0  0  0
    1.9685    1.3012    0.0000 C   0  0  0  0  0  4           0  0  0
  1  5  2  0     0  0
  2  8  1  0     0  0
  2 12  1  0     0  0
  3  8  2  0     0  0
  3  9  1  0     0  0
  4  9  2  0     0  0
  4 10  1  0     0  0
  5 11  1  0     0  0
  6  9  1  0     0  0
  7 10  1  0     0  0
  8 11  1  0     0  0
 10 11  2  0     0  0
M  END
> <Compound >
16

> <standard_type>
pIC50

> <# Confs.>
4

> <canonical_smiles>
NC1=NC(N)=C(N=O)C(OC)=N1

> <standard_relation>
=

> <predicted_activity_value>
3.7575430536731536

> <actual_activity_value>
4.102372908709558

> <Publication ID>
nan

> <standard_units>
nM

> hash
2351747802885158102

$$$$
6_
XXILIB    08252103513D 0   0.00000     0.00000

 31 33  0     1  0            999 V2000
   -4.6010   -0.5351   -1.0873 O   0  0  0  0  0  2           0  0  0
   -2.7474   -0.0001    2.2993 O   0  0  0  0  0  2           0  0  0
    5.1203    1.0284    5.0680 O   0  0  0  0  0  2           0  0  0
   -0.6706    0.0000    1.1725 N   0  0  0  0  0  3           0  0  0
   -0.6200   -0.0021   -1.2031 N   0  0  0  0  0  3           0  0  0
   -4.1112    0.0204   -0.0969 N   0  0  0  0  0  3           0  0  0
    1.4054    0.0000   -0.0000 N   0  0  0  0  0  3           0  0  0
   -2.5845    0.0178   -2.4998 N   0  0  0  0  0  3           0  0  0
    6.0788   -0.9731    4.3974 N   0  0  2  0  0  3           0  0  0
   -2.0216    0.0072    1.1181 C   0  0  0  0  0  4           0  0  0
    0.0000    0.0000    0.0000 C   0  0  0  0  0  4           0  0  0
   -1.9763   -0.0118   -1.2451 C   0  0  0  0  0  4           0  0  0
   -2.7356    0.0183   -0.0756 C   0  0  0  0  0  4           0  0  0
    2.3178    0.0000    1.0577 C   0  0  0  0  0  4           0  0  0
    4.2122    0.0614    3.1580 C   0  0  0  0  0  4           0  0  0
    3.5687    0.6114    0.8867 C   0  0  0  0  0  4           0  0  0
    2.0334   -0.5820    2.3009 C   0  0  0  0  0  4           0  0  0
    4.5093    0.6433    1.9220 C   0  0  0  0  0  4           0  0  0
    2.9686   -0.5526    3.3410 C   0  0  0  0  0  4           0  0  0
    5.1692    0.0782    4.2863 C   0  0  0  0  0  4           0  0  0
   -1.9459   -0.0149    3.4806 C   0  0  0  0  0  4           0  0  0
    7.0327   -0.9693    5.4888 C   0  0  0  0  0  4           0  0  0
    6.1507   -2.0970    3.4577 C   0  0  0  0  0  4           0  0  0
   -2.8472   -0.0218    4.7137 C   0  0  2  0  0  4           0  0  0
   -1.9998   -0.0378    5.9934 C   0  0  0  0  0  4           0  0  0
   -3.8230   -1.2106    4.6858 C   0  0  0  0  0  4           0  0  0
   -2.8651   -0.1028    7.2491 C   0  0  0  0  0  4           0  0  0
   -4.6787   -1.2744    5.9491 C   0  0  0  0  0  4           0  0  0
   -3.8214   -1.2896    7.2100 C   0  0  0  0  0  4           0  0  0
    6.4925   -1.6753    6.7210 C   0  0  0  0  0  4           0  0  0
    7.1022   -1.8180    2.3064 C   0  0  0  0  0  4           0  0  0
  1  6  2  0     0  0
  2 10  1  0     0  0
  2 21  1  0     0  0
  3 20  2  0     0  0
  4 10  2  0     0  0
  4 11  1  0     0  0
  5 11  2  0     0  0
  5 12  1  0     0  0
  6 13  1  0     0  0
  7 11  1  0     0  0
  7 14  1  0     0  0
  8 12  1  0     0  0
  9 20  1  0     0  0
  9 22  1  0     0  0
  9 23  1  0     0  0
 10 13  1  0     0  0
 12 13  2  0     0  0
 14 16  2  0     0  0
 14 17  1  0     0  0
 15 18  2  0     0  0
 15 19  1  0     0  0
 15 20  1  0     0  0
 16 18  1  0     0  0
 17 19  2  0     0  0
 21 24  1  0     0  0
 22 30  1  0     0  0
 23 31  1  0     0  0
 24 25  1  0     0  0
 24 26  1  0     0  0
 25 27  1  0     0  0
 26 28  1  0     0  0
 27 29  1  0     0  0
 28 29  1  0     0  0
M  END
> <Compound >
6

> <standard_type>
pIC50

> <# Confs.>
25

> <canonical_smiles>
NC1=C(N=O)C(OCC2CCCCC2)=NC(NC3=CC=C(C(N(CC)CC)=O)C=C3)=N1

> <standard_relation>
=

> <predicted_activity_value>
6.604673606930649

> <actual_activity_value>
6.698970004336019

> <Publication ID>
nan

> <standard_units>
nM

> hash
11749655514688934920

$$$$
6_
XXILIB    08252103513D 0   0.00000     0.00000

 31 33  0     1  0            999 V2000
   -4.6010   -0.5351   -1.0873 O   0  0  0  0  0  2           0  0  0
   -2.7474   -0.0001    2.2993 O   0  0  0  0  0  2           0  0  0
    5.1203    1.0284    5.0680 O   0  0  0  0  0  2           0  0  0
   -0.6706    0.0000    1.1725 N   0  0  0  0  0  3           0  0  0
   -0.6200   -0.0021   -1.2031 N   0  0  0  0  0  3           0  0  0
   -4.1112    0.0204   -0.0969 N   0  0  0  0  0  3           0  0  0
    1.4054    0.0000   -0.0000 N   0  0  0  0  0  3           0  0  0
   -2.5845    0.0178   -2.4998 N   0  0  0  0  0  3           0  0  0
    6.0788   -0.9731    4.3974 N   0  0  2  0  0  3           0  0  0
   -2.0216    0.0072    1.1181 C   0  0  0  0  0  4           0  0  0
    0.0000    0.0000    0.0000 C   0  0  0  0  0  4           0  0  0
   -1.9763   -0.0118   -1.2451 C   0  0  0  0  0  4           0  0  0
   -2.7356    0.0183   -0.0756 C   0  0  0  0  0  4           0  0  0
    2.3178    0.0000    1.0577 C   0  0  0  0  0  4           0  0  0
    4.2122    0.0614    3.1580 C   0  0  0  0  0  4           0  0  0
    3.5687    0.6114    0.8867 C   0  0  0  0  0  4           0  0  0
    2.0334   -0.5820    2.3009 C   0  0  0  0  0  4           0  0  0
    4.5093    0.6433    1.9220 C   0  0  0  0  0  4           0  0  0
    2.9686   -0.5526    3.3410 C   0  0  0  0  0  4           0  0  0
    5.1692    0.0782    4.2863 C   0  0  0  0  0  4           0  0  0
   -1.9459   -0.0149    3.4806 C   0  0  0  0  0  4           0  0  0
    7.0327   -0.9693    5.4888 C   0  0  0  0  0  4           0  0  0
    6.1507   -2.0970    3.4577 C   0  0  0  0  0  4           0  0  0
   -2.8472   -0.0218    4.7137 C   0  0  2  0  0  4           0  0  0
   -3.7367    1.2290    4.7309 C   0  0  0  0  0  4           0  0  0
   -2.0225   -0.1278    6.0079 C   0  0  0  0  0  4           0  0  0
   -4.6131    1.2879    5.9792 C   0  0  0  0  0  4           0  0  0
   -2.9050   -0.0588    7.2524 C   0  0  0  0  0  4           0  0  0
   -3.7813    1.1890    7.2532 C   0  0  0  0  0  4           0  0  0
    6.4925   -1.6753    6.7210 C   0  0  0  0  0  4           0  0  0
    7.1022   -1.8180    2.3064 C   0  0  0  0  0  4           0  0  0
  1  6  2  0     0  0
  2 10  1  0     0  0
  2 21  1  0     0  0
  3 20  2  0     0  0
  4 10  2  0     0  0
  4 11  1  0     0  0
  5 11  2  0     0  0
  5 12  1  0     0  0
  6 13  1  0     0  0
  7 11  1  0     0  0
  7 14  1  0     0  0
  8 12  1  0     0  0
  9 20  1  0     0  0
  9 22  1  0     0  0
  9 23  1  0     0  0
 10 13  1  0     0  0
 12 13  2  0     0  0
 14 16  2  0     0  0
 14 17  1  0     0  0
 15 18  2  0     0  0
 15 19  1  0     0  0
 15 20  1  0     0  0
 16 18  1  0     0  0
 17 19  2  0     0  0
 21 24  1  0     0  0
 22 30  1  0     0  0
 23 31  1  0     0  0
 24 25  1  0     0  0
 24 26  1  0     0  0
 25 27  1  0     0  0
 26 28  1  0     0  0
 27 29  1  0     0  0
 28 29  1  0     0  0
M  END
> <Compound >
6

> <standard_type>
pIC50

> <# Confs.>
25

> <canonical_smiles>
NC1=C(N=O)C(OCC2CCCCC2)=NC(NC3=CC=C(C(N(CC)CC)=O)C=C3)=N1

> <standard_relation>
=

> <predicted_activity_value>
6.604673606930649

> <actual_activity_value>
6.698970004336019

> <Publication ID>
nan

> <standard_units>
nM

> hash
11749655514688934920

$$$$
6_
XXILIB    08252103513D 0   0.00000     0.00000

 31 33  0     1  0            999 V2000
   -4.6010   -0.5351   -1.0873 O   0  0  0  0  0  2           0  0  0
   -2.7474   -0.0001    2.2993 O   0  0  0  0  0  2           0  0  0
    5.1203    1.0284    5.0680 O   0  0  0  0  0  2           0  0  0
   -0.6706    0.0000    1.1725 N   0  0  0  0  0  3           0  0  0
   -0.6200   -0.0021   -1.2031 N   0  0  0  0  0  3           0  0  0
   -4.1112    0.0204   -0.0969 N   0  0  0  0  0  3           0  0  0
    1.4054    0.0000   -0.0000 N   0  0  0  0  0  3           0  0  0
   -2.5845    0.0178   -2.4998 N   0  0  0  0  0  3           0  0  0
    6.0788   -0.9731    4.3974 N   0  0  2  0  0  3           0  0  0
   -2.0216    0.0072    1.1181 C   0  0  0  0  0  4           0  0  0
    0.0000    0.0000    0.0000 C   0  0  0  0  0  4           0  0  0
   -1.9763   -0.0118   -1.2451 C   0  0  0  0  0  4           0  0  0
   -2.7356    0.0183   -0.0756 C   0  0  0  0  0  4           0  0  0
    2.3178    0.0000    1.0577 C   0  0  0  0  0  4           0  0  0
    4.2122    0.0614    3.1580 C   0  0  0  0  0  4           0  0  0
    3.5687    0.6114    0.8867 C   0  0  0  0  0  4           0  0  0
    2.0334   -0.5820    2.3009 C   0  0  0  0  0  4           0  0  0
    4.5093    0.6433    1.9220 C   0  0  0  0  0  4           0  0  0
    2.9686   -0.5526    3.3410 C   0  0  0  0  0  4           0  0  0
    5.1692    0.0782    4.2863 C   0  0  0  0  0  4           0  0  0
   -1.9459   -0.0149    3.4806 C   0  0  0  0  0  4           0  0  0
    7.0327   -0.9693    5.4888 C   0  0  0  0  0  4           0  0  0
    6.1507   -2.0970    3.4577 C   0  0  0  0  0  4           0  0  0
   -2.8472   -0.0218    4.7137 C   0  0  2  0  0  4           0  0  0
   -1.9998   -0.0378    5.9934 C   0  0  0  0  0  4           0  0  0
   -3.8230   -1.2106    4.6858 C   0  0  0  0  0  4           0  0  0
   -2.8651   -0.1028    7.2491 C   0  0  0  0  0  4           0  0  0
   -4.6787   -1.2744    5.9491 C   0  0  0  0  0  4           0  0  0
   -3.8214   -1.2896    7.2100 C   0  0  0  0  0  4           0  0  0
    8.3237   -0.2604    5.1156 C   0  0  0  0  0  4           0  0  0
    5.2551   -3.2501    3.8780 C   0  0  0  0  0  4           0  0  0
  1  6  2  0     0  0
  2 10  1  0     0  0
  2 21  1  0     0  0
  3 20  2  0     0  0
  4 10  2  0     0  0
  4 11  1  0     0  0
  5 11  2  0     0  0
  5 12  1  0     0  0
  6 13  1  0     0  0
  7 11  1  0     0  0
  7 14  1  0     0  0
  8 12  1  0     0  0
  9 20  1  0     0  0
  9 22  1  0     0  0
  9 23  1  0     0  0
 10 13  1  0     0  0
 12 13  2  0     0  0
 14 16  2  0     0  0
 14 17  1  0     0  0
 15 18  2  0     0  0
 15 19  1  0     0  0
 15 20  1  0     0  0
 16 18  1  0     0  0
 17 19  2  0     0  0
 21 24  1  0     0  0
 22 30  1  0     0  0
 23 31  1  0     0  0
 24 25  1  0     0  0
 24 26  1  0     0  0
 25 27  1  0     0  0
 26 28  1  0     0  0
 27 29  1  0     0  0
 28 29  1  0     0  0
M  END
> <Compound >
6

> <standard_type>
pIC50

> <# Confs.>
25

> <canonical_smiles>
NC1=C(N=O)C(OCC2CCCCC2)=NC(NC3=CC=C(C(N(CC)CC)=O)C=C3)=N1

> <standard_relation>
=

> <predicted_activity_value>
6.604673606930649

> <actual_activity_value>
6.698970004336019

> <Publication ID>
nan

> <standard_units>
nM

> hash
11749655514688934920

$$$$
6_
XXILIB    08252103513D 0   0.00000     0.00000

 31 33  0     1  0            999 V2000
   -4.6010   -0.5351   -1.0873 O   0  0  0  0  0  2           0  0  0
   -2.7474   -0.0001    2.2993 O   0  0  0  0  0  2           0  0  0
    5.1203    1.0284    5.0680 O   0  0  0  0  0  2           0  0  0
   -0.6706    0.0000    1.1725 N   0  0  0  0  0  3           0  0  0
   -0.6200   -0.0021   -1.2031 N   0  0  0  0  0  3           0  0  0
   -4.1112    0.0204   -0.0969 N   0  0  0  0  0  3           0  0  0
    1.4054    0.0000   -0.0000 N   0  0  0  0  0  3           0  0  0
   -2.5845    0.0178   -2.4998 N   0  0  0  0  0  3           0  0  0
    6.0788   -0.9731    4.3974 N   0  0  2  0  0  3           0  0  0
   -2.0216    0.0072    1.1181 C   0  0  0  0  0  4           0  0  0
    0.0000    0.0000    0.0000 C   0  0  0  0  0  4           0  0  0
   -1.9763   -0.0118   -1.2451 C   0  0  0  0  0  4           0  0  0
   -2.7356    0.0183   -0.0756 C   0  0  0  0  0  4           0  0  0
    2.3178    0.0000    1.0577 C   0  0  0  0  0  4           0  0  0
    4.2122    0.0614    3.1580 C   0  0  0  0  0  4           0  0  0
    3.5687    0.6114    0.8867 C   0  0  0  0  0  4           0  0  0
    2.0334   -0.5820    2.3009 C   0  0  0  0  0  4           0  0  0
    4.5093    0.6433    1.9220 C   0  0  0  0  0  4           0  0  0
    2.9686   -0.5526    3.3410 C   0  0  0  0  0  4           0  0  0
    5.1692    0.0782    4.2863 C   0  0  0  0  0  4           0  0  0
   -1.9459   -0.0149    3.4806 C   0  0  0  0  0  4           0  0  0
    7.0327   -0.9693    5.4888 C   0  0  0  0  0  4           0  0  0
    6.1507   -2.0970    3.4577 C   0  0  0  0  0  4           0  0  0
   -2.8472   -0.0218    4.7137 C   0  0  2  0  0  4           0  0  0
   -3.7367    1.2290    4.7309 C   0  0  0  0  0  4           0  0  0
   -2.0225   -0.1278    6.0079 C   0  0  0  0  0  4           0  0  0
   -4.6131    1.2879    5.9792 C   0  0  0  0  0  4           0  0  0
   -2.9050   -0.0588    7.2524 C   0  0  0  0  0  4           0  0  0
   -3.7813    1.1890    7.2532 C   0  0  0  0  0  4           0  0  0
    8.3237   -0.2604    5.1156 C   0  0  0  0  0  4           0  0  0
    5.2551   -3.2501    3.8780 C   0  0  0  0  0  4           0  0  0
  1  6  2  0     0  0
  2 10  1  0     0  0
  2 21  1  0     0  0
  3 20  2  0     0  0
  4 10  2  0     0  0
  4 11  1  0     0  0
  5 11  2  0     0  0
  5 12  1  0     0  0
  6 13  1  0     0  0
  7 11  1  0     0  0
  7 14  1  0     0  0
  8 12  1  0     0  0
  9 20  1  0     0  0
  9 22  1  0     0  0
  9 23  1  0     0  0
 10 13  1  0     0  0
 12 13  2  0     0  0
 14 16  2  0     0  0
 14 17  1  0     0  0
 15 18  2  0     0  0
 15 19  1  0     0  0
 15 20  1  0     0  0
 16 18  1  0     0  0
 17 19  2  0     0  0
 21 24  1  0     0  0
 22 30  1  0     0  0
 23 31  1  0     0  0
 24 25  1  0     0  0
 24 26  1  0     0  0
 25 27  1  0     0  0
 26 28  1  0     0  0
 27 29  1  0     0  0
 28 29  1  0     0  0
M  END
> <Compound >
6

> <standard_type>
pIC50

> <# Confs.>
25

> <canonical_smiles>
NC1=C(N=O)C(OCC2CCCCC2)=NC(NC3=CC=C(C(N(CC)CC)=O)C=C3)=N1

> <standard_relation>
=

> <predicted_activity_value>
6.604673606930649

> <actual_activity_value>
6.698970004336019

> <Publication ID>
nan

> <standard_units>
nM

> hash
11749655514688934920

$$$$
6_
XXILIB    08252103513D 0   0.00000     0.00000

 31 33  0     1  0            999 V2000
   -4.6010   -0.5351   -1.0873 O   0  0  0  0  0  2           0  0  0
   -2.7474   -0.0001    2.2993 O   0  0  0  0  0  2           0  0  0
    5.1203    1.0284    5.0680 O   0  0  0  0  0  2           0  0  0
   -0.6706    0.0000    1.1725 N   0  0  0  0  0  3           0  0  0
   -0.6200   -0.0021   -1.2031 N   0  0  0  0  0  3           0  0  0
   -4.1112    0.0204   -0.0969 N   0  0  0  0  0  3           0  0  0
    1.4054    0.0000   -0.0000 N   0  0  0  0  0  3           0  0  0
   -2.5845    0.0178   -2.4998 N   0  0  0  0  0  3           0  0  0
    6.0788   -0.9731    4.3974 N   0  0  2  0  0  3           0  0  0
   -2.0216    0.0072    1.1181 C   0  0  0  0  0  4           0  0  0
    0.0000    0.0000    0.0000 C   0  0  0  0  0  4           0  0  0
   -1.9763   -0.0118   -1.2451 C   0  0  0  0  0  4           0  0  0
   -2.7356    0.0183   -0.0756 C   0  0  0  0  0  4           0  0  0
    2.3178    0.0000    1.0577 C   0  0  0  0  0  4           0  0  0
    4.2122    0.0614    3.1580 C   0  0  0  0  0  4           0  0  0
    3.5687    0.6114    0.8867 C   0  0  0  0  0  4           0  0  0
    2.0334   -0.5820    2.3009 C   0  0  0  0  0  4           0  0  0
    4.5093    0.6433    1.9220 C   0  0  0  0  0  4           0  0  0
    2.9686   -0.5526    3.3410 C   0  0  0  0  0  4           0  0  0
    5.1692    0.0782    4.2863 C   0  0  0  0  0  4           0  0  0
   -1.9459   -0.0149    3.4806 C   0  0  0  0  0  4           0  0  0
    7.0327   -0.9693    5.4888 C   0  0  0  0  0  4           0  0  0
    6.1507   -2.0970    3.4577 C   0  0  0  0  0  4           0  0  0
   -2.8472   -0.0218    4.7137 C   0  0  2  0  0  4           0  0  0
   -3.7490   -1.2639    4.7080 C   0  0  0  0  0  4           0  0  0
   -3.6850    1.2653    4.8005 C   0  0  0  0  0  4           0  0  0
   -4.7064   -1.2785    5.8967 C   0  0  0  0  0  4           0  0  0
   -4.6469    1.2395    5.9864 C   0  0  0  0  0  4           0  0  0
   -5.5344   -0.0001    5.9651 C   0  0  0  0  0  4           0  0  0
    6.4925   -1.6753    6.7210 C   0  0  0  0  0  4           0  0  0
    7.1022   -1.8180    2.3064 C   0  0  0  0  0  4           0  0  0
  1  6  2  0     0  0
  2 10  1  0     0  0
  2 21  1  0     0  0
  3 20  2  0     0  0
  4 10  2  0     0  0
  4 11  1  0     0  0
  5 11  2  0     0  0
  5 12  1  0     0  0
  6 13  1  0     0  0
  7 11  1  0     0  0
  7 14  1  0     0  0
  8 12  1  0     0  0
  9 20  1  0     0  0
  9 22  1  0     0  0
  9 23  1  0     0  0
 10 13  1  0     0  0
 12 13  2  0     0  0
 14 16  2  0     0  0
 14 17  1  0     0  0
 15 18  2  0     0  0
 15 19  1  0     0  0
 15 20  1  0     0  0
 16 18  1  0     0  0
 17 19  2  0     0  0
 21 24  1  0     0  0
 22 30  1  0     0  0
 23 31  1  0     0  0
 24 25  1  0     0  0
 24 26  1  0     0  0
 25 27  1  0     0  0
 26 28  1  0     0  0
 27 29  1  0     0  0
 28 29  1  0     0  0
M  END
> <Compound >
6

> <standard_type>
pIC50

> <# Confs.>
25

> <canonical_smiles>
NC1=C(N=O)C(OCC2CCCCC2)=NC(NC3=CC=C(C(N(CC)CC)=O)C=C3)=N1

> <standard_relation>
=

> <predicted_activity_value>
6.604673606930649

> <actual_activity_value>
6.698970004336019

> <Publication ID>
nan

> <standard_units>
nM

> hash
11749655514688934920

$$$$
6_
XXILIB    08252103513D 0   0.00000     0.00000

 31 33  0     1  0            999 V2000
   -4.6010   -0.5351   -1.0873 O   0  0  0  0  0  2           0  0  0
   -2.7474   -0.0001    2.2993 O   0  0  0  0  0  2           0  0  0
    5.1203    1.0284    5.0680 O   0  0  0  0  0  2           0  0  0
   -0.6706    0.0000    1.1725 N   0  0  0  0  0  3           0  0  0
   -0.6200   -0.0021   -1.2031 N   0  0  0  0  0  3           0  0  0
   -4.1112    0.0204   -0.0969 N   0  0  0  0  0  3           0  0  0
    1.4054    0.0000   -0.0000 N   0  0  0  0  0  3           0  0  0
   -2.5845    0.0178   -2.4998 N   0  0  0  0  0  3           0  0  0
    6.0788   -0.9731    4.3974 N   0  0  2  0  0  3           0  0  0
   -2.0216    0.0072    1.1181 C   0  0  0  0  0  4           0  0  0
    0.0000    0.0000    0.0000 C   0  0  0  0  0  4           0  0  0
   -1.9763   -0.0118   -1.2451 C   0  0  0  0  0  4           0  0  0
   -2.7356    0.0183   -0.0756 C   0  0  0  0  0  4           0  0  0
    2.3178    0.0000    1.0577 C   0  0  0  0  0  4           0  0  0
    4.2122    0.0614    3.1580 C   0  0  0  0  0  4           0  0  0
    3.5687    0.6114    0.8867 C   0  0  0  0  0  4           0  0  0
    2.0334   -0.5820    2.3009 C   0  0  0  0  0  4           0  0  0
    4.5093    0.6433    1.9220 C   0  0  0  0  0  4           0  0  0
    2.9686   -0.5526    3.3410 C   0  0  0  0  0  4           0  0  0
    5.1692    0.0782    4.2863 C   0  0  0  0  0  4           0  0  0
   -1.9459   -0.0149    3.4806 C   0  0  0  0  0  4           0  0  0
    7.0327   -0.9693    5.4888 C   0  0  0  0  0  4           0  0  0
    6.1507   -2.0970    3.4577 C   0  0  0  0  0  4           0  0  0
   -2.8472   -0.0218    4.7137 C   0  0  2  0  0  4           0  0  0
   -3.7490   -1.2639    4.7080 C   0  0  0  0  0  4           0  0  0
   -3.6850    1.2653    4.8005 C   0  0  0  0  0  4           0  0  0
   -4.7064   -1.2785    5.8967 C   0  0  0  0  0  4           0  0  0
   -4.6469    1.2395    5.9864 C   0  0  0  0  0  4           0  0  0
   -5.5344   -0.0001    5.9651 C   0  0  0  0  0  4           0  0  0
    8.3237   -0.2604    5.1156 C   0  0  0  0  0  4           0  0  0
    5.2551   -3.2501    3.8780 C   0  0  0  0  0  4           0  0  0
  1  6  2  0     0  0
  2 10  1  0     0  0
  2 21  1  0     0  0
  3 20  2  0     0  0
  4 10  2  0     0  0
  4 11  1  0     0  0
  5 11  2  0     0  0
  5 12  1  0     0  0
  6 13  1  0     0  0
  7 11  1  0     0  0
  7 14  1  0     0  0
  8 12  1  0     0  0
  9 20  1  0     0  0
  9 22  1  0     0  0
  9 23  1  0     0  0
 10 13  1  0     0  0
 12 13  2  0     0  0
 14 16  2  0     0  0
 14 17  1  0     0  0
 15 18  2  0     0  0
 15 19  1  0     0  0
 15 20  1  0     0  0
 16 18  1  0     0  0
 17 19  2  0     0  0
 21 24  1  0     0  0
 22 30  1  0     0  0
 23 31  1  0     0  0
 24 25  1  0     0  0
 24 26  1  0     0  0
 25 27  1  0     0  0
 26 28  1  0     0  0
 27 29  1  0     0  0
 28 29  1  0     0  0
M  END
> <Compound >
6

> <standard_type>
pIC50

> <# Confs.>
25

> <canonical_smiles>
NC1=C(N=O)C(OCC2CCCCC2)=NC(NC3=CC=C(C(N(CC)CC)=O)C=C3)=N1

> <standard_relation>
=

> <predicted_activity_value>
6.604673606930649

> <actual_activity_value>
6.698970004336019

> <Publication ID>
nan

> <standard_units>
nM

> hash
11749655514688934920

$$$$
6_
XXILIB    08252103513D 0   0.00000     0.00000

 31 33  0     1  0            999 V2000
   -4.6010   -0.5351   -1.0873 O   0  0  0  0  0  2           0  0  0
   -2.7474   -0.0001    2.2993 O   0  0  0  0  0  2           0  0  0
    5.1203   -1.0284   -5.0680 O   0  0  0  0  0  2           0  0  0
   -0.6706    0.0000    1.1725 N   0  0  0  0  0  3           0  0  0
   -0.6200   -0.0021   -1.2031 N   0  0  0  0  0  3           0  0  0
   -4.1112    0.0204   -0.0969 N   0  0  0  0  0  3           0  0  0
    1.4054   -0.0000    0.0000 N   0  0  0  0  0  3           0  0  0
   -2.5845    0.0178   -2.4998 N   0  0  0  0  0  3           0  0  0
    6.0788    0.9731   -4.3974 N   0  0  2  0  0  3           0  0  0
   -2.0216    0.0072    1.1181 C   0  0  0  0  0  4           0  0  0
    0.0000    0.0000    0.0000 C   0  0  0  0  0  4           0  0  0
   -1.9763   -0.0118   -1.2451 C   0  0  0  0  0  4           0  0  0
   -2.7356    0.0183   -0.0756 C   0  0  0  0  0  4           0  0  0
    2.3178   -0.0000   -1.0577 C   0  0  0  0  0  4           0  0  0
    4.2122   -0.0614   -3.1580 C   0  0  0  0  0  4           0  0  0
    3.5687   -0.6114   -0.8867 C   0  0  0  0  0  4           0  0  0
    2.0334    0.5820   -2.3009 C   0  0  0  0  0  4           0  0  0
    4.5093   -0.6433   -1.9220 C   0  0  0  0  0  4           0  0  0
    2.9686    0.5526   -3.3410 C   0  0  0  0  0  4           0  0  0
    5.1692   -0.0782   -4.2863 C   0  0  0  0  0  4           0  0  0
   -1.9459   -0.0149    3.4806 C   0  0  0  0  0  4           0  0  0
    7.0327    0.9693   -5.4888 C   0  0  0  0  0  4           0  0  0
    6.1507    2.0970   -3.4577 C   0  0  0  0  0  4           0  0  0
   -2.8472   -0.0218    4.7137 C   0  0  2  0  0  4           0  0  0
   -1.9998   -0.0378    5.9934 C   0  0  0  0  0  4           0  0  0
   -3.8230   -1.2106    4.6858 C   0  0  0  0  0  4           0  0  0
   -2.8651   -0.1028    7.2491 C   0  0  0  0  0  4           0  0  0
   -4.6787   -1.2744    5.9491 C   0  0  0  0  0  4           0  0  0
   -3.8214   -1.2896    7.2100 C   0  0  0  0  0  4           0  0  0
    6.4925    1.6753   -6.7210 C   0  0  0  0  0  4           0  0  0
    7.1022    1.8180   -2.3064 C   0  0  0  0  0  4           0  0  0
  1  6  2  0     0  0
  2 10  1  0     0  0
  2 21  1  0     0  0
  3 20  2  0     0  0
  4 10  2  0     0  0
  4 11  1  0     0  0
  5 11  2  0     0  0
  5 12  1  0     0  0
  6 13  1  0     0  0
  7 11  1  0     0  0
  7 14  1  0     0  0
  8 12  1  0     0  0
  9 20  1  0     0  0
  9 22  1  0     0  0
  9 23  1  0     0  0
 10 13  1  0     0  0
 12 13  2  0     0  0
 14 16  2  0     0  0
 14 17  1  0     0  0
 15 18  2  0     0  0
 15 19  1  0     0  0
 15 20  1  0     0  0
 16 18  1  0     0  0
 17 19  2  0     0  0
 21 24  1  0     0  0
 22 30  1  0     0  0
 23 31  1  0     0  0
 24 25  1  0     0  0
 24 26  1  0     0  0
 25 27  1  0     0  0
 26 28  1  0     0  0
 27 29  1  0     0  0
 28 29  1  0     0  0
M  END
> <Compound >
6

> <standard_type>
pIC50

> <# Confs.>
25

> <canonical_smiles>
NC1=C(N=O)C(OCC2CCCCC2)=NC(NC3=CC=C(C(N(CC)CC)=O)C=C3)=N1

> <standard_relation>
=

> <predicted_activity_value>
6.604673606930649

> <actual_activity_value>
6.698970004336019

> <Publication ID>
nan

> <standard_units>
nM

> hash
11749655514688934920

$$$$
6_
XXILIB    08252103513D 0   0.00000     0.00000

 31 33  0     1  0            999 V2000
   -4.6010   -0.5351   -1.0873 O   0  0  0  0  0  2           0  0  0
   -2.7474   -0.0001    2.2993 O   0  0  0  0  0  2           0  0  0
    5.1203   -1.0284   -5.0680 O   0  0  0  0  0  2           0  0  0
   -0.6706    0.0000    1.1725 N   0  0  0  0  0  3           0  0  0
   -0.6200   -0.0021   -1.2031 N   0  0  0  0  0  3           0  0  0
   -4.1112    0.0204   -0.0969 N   0  0  0  0  0  3           0  0  0
    1.4054   -0.0000    0.0000 N   0  0  0  0  0  3           0  0  0
   -2.5845    0.0178   -2.4998 N   0  0  0  0  0  3           0  0  0
    6.0788    0.9731   -4.3974 N   0  0  2  0  0  3           0  0  0
   -2.0216    0.0072    1.1181 C   0  0  0  0  0  4           0  0  0
    0.0000    0.0000    0.0000 C   0  0  0  0  0  4           0  0  0
   -1.9763   -0.0118   -1.2451 C   0  0  0  0  0  4           0  0  0
   -2.7356    0.0183   -0.0756 C   0  0  0  0  0  4           0  0  0
    2.3178   -0.0000   -1.0577 C   0  0  0  0  0  4           0  0  0
    4.2122   -0.0614   -3.1580 C   0  0  0  0  0  4           0  0  0
    3.5687   -0.6114   -0.8867 C   0  0  0  0  0  4           0  0  0
    2.0334    0.5820   -2.3009 C   0  0  0  0  0  4           0  0  0
    4.5093   -0.6433   -1.9220 C   0  0  0  0  0  4           0  0  0
    2.9686    0.5526   -3.3410 C   0  0  0  0  0  4           0  0  0
    5.1692   -0.0782   -4.2863 C   0  0  0  0  0  4           0  0  0
   -1.9459   -0.0149    3.4806 C   0  0  0  0  0  4           0  0  0
    7.0327    0.9693   -5.4888 C   0  0  0  0  0  4           0  0  0
    6.1507    2.0970   -3.4577 C   0  0  0  0  0  4           0  0  0
   -2.8472   -0.0218    4.7137 C   0  0  2  0  0  4           0  0  0
   -3.7367    1.2290    4.7309 C   0  0  0  0  0  4           0  0  0
   -2.0225   -0.1278    6.0079 C   0  0  0  0  0  4           0  0  0
   -4.6131    1.2879    5.9792 C   0  0  0  0  0  4           0  0  0
   -2.9050   -0.0588    7.2524 C   0  0  0  0  0  4           0  0  0
   -3.7813    1.1890    7.2532 C   0  0  0  0  0  4           0  0  0
    6.4925    1.6753   -6.7210 C   0  0  0  0  0  4           0  0  0
    7.1022    1.8180   -2.3064 C   0  0  0  0  0  4           0  0  0
  1  6  2  0     0  0
  2 10  1  0     0  0
  2 21  1  0     0  0
  3 20  2  0     0  0
  4 10  2  0     0  0
  4 11  1  0     0  0
  5 11  2  0     0  0
  5 12  1  0     0  0
  6 13  1  0     0  0
  7 11  1  0     0  0
  7 14  1  0     0  0
  8 12  1  0     0  0
  9 20  1  0     0  0
  9 22  1  0     0  0
  9 23  1  0     0  0
 10 13  1  0     0  0
 12 13  2  0     0  0
 14 16  2  0     0  0
 14 17  1  0     0  0
 15 18  2  0     0  0
 15 19  1  0     0  0
 15 20  1  0     0  0
 16 18  1  0     0  0
 17 19  2  0     0  0
 21 24  1  0     0  0
 22 30  1  0     0  0
 23 31  1  0     0  0
 24 25  1  0     0  0
 24 26  1  0     0  0
 25 27  1  0     0  0
 26 28  1  0     0  0
 27 29  1  0     0  0
 28 29  1  0     0  0
M  END
> <Compound >
6

> <standard_type>
pIC50

> <# Confs.>
25

> <canonical_smiles>
NC1=C(N=O)C(OCC2CCCCC2)=NC(NC3=CC=C(C(N(CC)CC)=O)C=C3)=N1

> <standard_relation>
=

> <predicted_activity_value>
6.604673606930649

> <actual_activity_value>
6.698970004336019

> <Publication ID>
nan

> <standard_units>
nM

> hash
11749655514688934920

$$$$
6_
XXILIB    08252103513D 0   0.00000     0.00000

 31 33  0     1  0            999 V2000
   -4.6010   -0.5351   -1.0873 O   0  0  0  0  0  2           0  0  0
   -2.7474   -0.0001    2.2993 O   0  0  0  0  0  2           0  0  0
    5.1203   -1.0284   -5.0680 O   0  0  0  0  0  2           0  0  0
   -0.6706    0.0000    1.1725 N   0  0  0  0  0  3           0  0  0
   -0.6200   -0.0021   -1.2031 N   0  0  0  0  0  3           0  0  0
   -4.1112    0.0204   -0.0969 N   0  0  0  0  0  3           0  0  0
    1.4054   -0.0000    0.0000 N   0  0  0  0  0  3           0  0  0
   -2.5845    0.0178   -2.4998 N   0  0  0  0  0  3           0  0  0
    6.0788    0.9731   -4.3974 N   0  0  2  0  0  3           0  0  0
   -2.0216    0.0072    1.1181 C   0  0  0  0  0  4           0  0  0
    0.0000    0.0000    0.0000 C   0  0  0  0  0  4           0  0  0
   -1.9763   -0.0118   -1.2451 C   0  0  0  0  0  4           0  0  0
   -2.7356    0.0183   -0.0756 C   0  0  0  0  0  4           0  0  0
    2.3178   -0.0000   -1.0577 C   0  0  0  0  0  4           0  0  0
    4.2122   -0.0614   -3.1580 C   0  0  0  0  0  4           0  0  0
    3.5687   -0.6114   -0.8867 C   0  0  0  0  0  4           0  0  0
    2.0334    0.5820   -2.3009 C   0  0  0  0  0  4           0  0  0
    4.5093   -0.6433   -1.9220 C   0  0  0  0  0  4           0  0  0
    2.9686    0.5526   -3.3410 C   0  0  0  0  0  4           0  0  0
    5.1692   -0.0782   -4.2863 C   0  0  0  0  0  4           0  0  0
   -1.9459   -0.0149    3.4806 C   0  0  0  0  0  4           0  0  0
    7.0327    0.9693   -5.4888 C   0  0  0  0  0  4           0  0  0
    6.1507    2.0970   -3.4577 C   0  0  0  0  0  4           0  0  0
   -2.8472   -0.0218    4.7137 C   0  0  2  0  0  4           0  0  0
   -1.9998   -0.0378    5.9934 C   0  0  0  0  0  4           0  0  0
   -3.8230   -1.2106    4.6858 C   0  0  0  0  0  4           0  0  0
   -2.8651   -0.1028    7.2491 C   0  0  0  0  0  4           0  0  0
   -4.6787   -1.2744    5.9491 C   0  0  0  0  0  4           0  0  0
   -3.8214   -1.2896    7.2100 C   0  0  0  0  0  4           0  0  0
    8.3237    0.2604   -5.1156 C   0  0  0  0  0  4           0  0  0
    5.2551    3.2501   -3.8780 C   0  0  0  0  0  4           0  0  0
  1  6  2  0     0  0
  2 10  1  0     0  0
  2 21  1  0     0  0
  3 20  2  0     0  0
  4 10  2  0     0  0
  4 11  1  0     0  0
  5 11  2  0     0  0
  5 12  1  0     0  0
  6 13  1  0     0  0
  7 11  1  0     0  0
  7 14  1  0     0  0
  8 12  1  0     0  0
  9 20  1  0     0  0
  9 22  1  0     0  0
  9 23  1  0     0  0
 10 13  1  0     0  0
 12 13  2  0     0  0
 14 16  2  0     0  0
 14 17  1  0     0  0
 15 18  2  0     0  0
 15 19  1  0     0  0
 15 20  1  0     0  0
 16 18  1  0     0  0
 17 19  2  0     0  0
 21 24  1  0     0  0
 22 30  1  0     0  0
 23 31  1  0     0  0
 24 25  1  0     0  0
 24 26  1  0     0  0
 25 27  1  0     0  0
 26 28  1  0     0  0
 27 29  1  0     0  0
 28 29  1  0     0  0
M  END
> <Compound >
6

> <standard_type>
pIC50

> <# Confs.>
25

> <canonical_smiles>
NC1=C(N=O)C(OCC2CCCCC2)=NC(NC3=CC=C(C(N(CC)CC)=O)C=C3)=N1

> <standard_relation>
=

> <predicted_activity_value>
6.604673606930649

> <actual_activity_value>
6.698970004336019

> <Publication ID>
nan

> <standard_units>
nM

> hash
11749655514688934920

$$$$
6_
XXILIB    08252103513D 0   0.00000     0.00000

 31 33  0     1  0            999 V2000
   -4.5994    0.5941   -1.0776 O   0  0  0  0  0  2           0  0  0
   -2.7474   -0.0001    2.2993 O   0  0  0  0  0  2           0  0  0
    5.1203    1.0284    5.0680 O   0  0  0  0  0  2           0  0  0
   -0.6706    0.0000    1.1725 N   0  0  0  0  0  3           0  0  0
   -0.6200   -0.0021   -1.2031 N   0  0  0  0  0  3           0  0  0
   -4.1112    0.0204   -0.0969 N   0  0  0  0  0  3           0  0  0
    1.4054    0.0000   -0.0000 N   0  0  0  0  0  3           0  0  0
   -2.5845    0.0178   -2.4998 N   0  0  0  0  0  3           0  0  0
    6.0788   -0.9731    4.3974 N   0  0  2  0  0  3           0  0  0
   -2.0216    0.0072    1.1181 C   0  0  0  0  0  4           0  0  0
    0.0000    0.0000    0.0000 C   0  0  0  0  0  4           0  0  0
   -1.9763   -0.0118   -1.2451 C   0  0  0  0  0  4           0  0  0
   -2.7356    0.0183   -0.0756 C   0  0  0  0  0  4           0  0  0
    2.3178    0.0000    1.0577 C   0  0  0  0  0  4           0  0  0
    4.2122    0.0614    3.1580 C   0  0  0  0  0  4           0  0  0
    3.5687    0.6114    0.8867 C   0  0  0  0  0  4           0  0  0
    2.0334   -0.5820    2.3009 C   0  0  0  0  0  4           0  0  0
    4.5093    0.6433    1.9220 C   0  0  0  0  0  4           0  0  0
    2.9686   -0.5526    3.3410 C   0  0  0  0  0  4           0  0  0
    5.1692    0.0782    4.2863 C   0  0  0  0  0  4           0  0  0
   -1.9459   -0.0149    3.4806 C   0  0  0  0  0  4           0  0  0
    7.0327   -0.9693    5.4888 C   0  0  0  0  0  4           0  0  0
    6.1507   -2.0970    3.4577 C   0  0  0  0  0  4           0  0  0
   -2.8472   -0.0218    4.7137 C   0  0  2  0  0  4           0  0  0
   -3.7752   -1.2494    4.7586 C   0  0  0  0  0  4           0  0  0
   -2.0256    0.0776    6.0077 C   0  0  0  0  0  4           0  0  0
   -3.0350   -2.5432    5.0946 C   0  0  0  0  0  4           0  0  0
   -1.2827   -1.2151    6.3408 C   0  0  0  0  0  4           0  0  0
   -2.2290   -2.4111    6.3831 C   0  0  0  0  0  4           0  0  0
    6.4925   -1.6753    6.7210 C   0  0  0  0  0  4           0  0  0
    7.1022   -1.8180    2.3064 C   0  0  0  0  0  4           0  0  0
  1  6  2  0     0  0
  2 10  1  0     0  0
  2 21  1  0     0  0
  3 20  2  0     0  0
  4 10  2  0     0  0
  4 11  1  0     0  0
  5 11  2  0     0  0
  5 12  1  0     0  0
  6 13  1  0     0  0
  7 11  1  0     0  0
  7 14  1  0     0  0
  8 12  1  0     0  0
  9 20  1  0     0  0
  9 22  1  0     0  0
  9 23  1  0     0  0
 10 13  1  0     0  0
 12 13  2  0     0  0
 14 16  2  0     0  0
 14 17  1  0     0  0
 15 18  2  0     0  0
 15 19  1  0     0  0
 15 20  1  0     0  0
 16 18  1  0     0  0
 17 19  2  0     0  0
 21 24  1  0     0  0
 22 30  1  0     0  0
 23 31  1  0     0  0
 24 25  1  0     0  0
 24 26  1  0     0  0
 25 27  1  0     0  0
 26 28  1  0     0  0
 27 29  1  0     0  0
 28 29  1  0     0  0
M  END
> <Compound >
6

> <standard_type>
pIC50

> <# Confs.>
25

> <canonical_smiles>
NC1=C(N=O)C(OCC2CCCCC2)=NC(NC3=CC=C(C(N(CC)CC)=O)C=C3)=N1

> <standard_relation>
=

> <predicted_activity_value>
6.604673606930649

> <actual_activity_value>
6.698970004336019

> <Publication ID>
nan

> <standard_units>
nM

> hash
11749655514688934920

$$$$
6_
XXILIB    08252103513D 0   0.00000     0.00000

 31 33  0     1  0            999 V2000
   -4.6010   -0.5351   -1.0873 O   0  0  0  0  0  2           0  0  0
   -2.7474   -0.0001    2.2993 O   0  0  0  0  0  2           0  0  0
    5.1203   -1.0284   -5.0680 O   0  0  0  0  0  2           0  0  0
   -0.6706    0.0000    1.1725 N   0  0  0  0  0  3           0  0  0
   -0.6200   -0.0021   -1.2031 N   0  0  0  0  0  3           0  0  0
   -4.1112    0.0204   -0.0969 N   0  0  0  0  0  3           0  0  0
    1.4054   -0.0000    0.0000 N   0  0  0  0  0  3           0  0  0
   -2.5845    0.0178   -2.4998 N   0  0  0  0  0  3           0  0  0
    6.0788    0.9731   -4.3974 N   0  0  2  0  0  3           0  0  0
   -2.0216    0.0072    1.1181 C   0  0  0  0  0  4           0  0  0
    0.0000    0.0000    0.0000 C   0  0  0  0  0  4           0  0  0
   -1.9763   -0.0118   -1.2451 C   0  0  0  0  0  4           0  0  0
   -2.7356    0.0183   -0.0756 C   0  0  0  0  0  4           0  0  0
    2.3178   -0.0000   -1.0577 C   0  0  0  0  0  4           0  0  0
    4.2122   -0.0614   -3.1580 C   0  0  0  0  0  4           0  0  0
    3.5687   -0.6114   -0.8867 C   0  0  0  0  0  4           0  0  0
    2.0334    0.5820   -2.3009 C   0  0  0  0  0  4           0  0  0
    4.5093   -0.6433   -1.9220 C   0  0  0  0  0  4           0  0  0
    2.9686    0.5526   -3.3410 C   0  0  0  0  0  4           0  0  0
    5.1692   -0.0782   -4.2863 C   0  0  0  0  0  4           0  0  0
   -1.9459   -0.0149    3.4806 C   0  0  0  0  0  4           0  0  0
    7.0327    0.9693   -5.4888 C   0  0  0  0  0  4           0  0  0
    6.1507    2.0970   -3.4577 C   0  0  0  0  0  4           0  0  0
   -2.8472   -0.0218    4.7137 C   0  0  2  0  0  4           0  0  0
   -3.7490   -1.2639    4.7080 C   0  0  0  0  0  4           0  0  0
   -3.6850    1.2653    4.8005 C   0  0  0  0  0  4           0  0  0
   -4.7064   -1.2785    5.8967 C   0  0  0  0  0  4           0  0  0
   -4.6469    1.2395    5.9864 C   0  0  0  0  0  4           0  0  0
   -5.5344   -0.0001    5.9651 C   0  0  0  0  0  4           0  0  0
    6.4925    1.6753   -6.7210 C   0  0  0  0  0  4           0  0  0
    7.1022    1.8180   -2.3064 C   0  0  0  0  0  4           0  0  0
  1  6  2  0     0  0
  2 10  1  0     0  0
  2 21  1  0     0  0
  3 20  2  0     0  0
  4 10  2  0     0  0
  4 11  1  0     0  0
  5 11  2  0     0  0
  5 12  1  0     0  0
  6 13  1  0     0  0
  7 11  1  0     0  0
  7 14  1  0     0  0
  8 12  1  0     0  0
  9 20  1  0     0  0
  9 22  1  0     0  0
  9 23  1  0     0  0
 10 13  1  0     0  0
 12 13  2  0     0  0
 14 16  2  0     0  0
 14 17  1  0     0  0
 15 18  2  0     0  0
 15 19  1  0     0  0
 15 20  1  0     0  0
 16 18  1  0     0  0
 17 19  2  0     0  0
 21 24  1  0     0  0
 22 30  1  0     0  0
 23 31  1  0     0  0
 24 25  1  0     0  0
 24 26  1  0     0  0
 25 27  1  0     0  0
 26 28  1  0     0  0
 27 29  1  0     0  0
 28 29  1  0     0  0
M  END
> <Compound >
6

> <standard_type>
pIC50

> <# Confs.>
25

> <canonical_smiles>
NC1=C(N=O)C(OCC2CCCCC2)=NC(NC3=CC=C(C(N(CC)CC)=O)C=C3)=N1

> <standard_relation>
=

> <predicted_activity_value>
6.604673606930649

> <actual_activity_value>
6.698970004336019

> <Publication ID>
nan

> <standard_units>
nM

> hash
11749655514688934920

$$$$
6_
XXILIB    08252103513D 0   0.00000     0.00000

 31 33  0     1  0            999 V2000
   -4.6010   -0.5351   -1.0873 O   0  0  0  0  0  2           0  0  0
   -2.7474   -0.0001    2.2993 O   0  0  0  0  0  2           0  0  0
    5.1203   -1.0284   -5.0680 O   0  0  0  0  0  2           0  0  0
   -0.6706    0.0000    1.1725 N   0  0  0  0  0  3           0  0  0
   -0.6200   -0.0021   -1.2031 N   0  0  0  0  0  3           0  0  0
   -4.1112    0.0204   -0.0969 N   0  0  0  0  0  3           0  0  0
    1.4054   -0.0000    0.0000 N   0  0  0  0  0  3           0  0  0
   -2.5845    0.0178   -2.4998 N   0  0  0  0  0  3           0  0  0
    6.0788    0.9731   -4.3974 N   0  0  2  0  0  3           0  0  0
   -2.0216    0.0072    1.1181 C   0  0  0  0  0  4           0  0  0
    0.0000    0.0000    0.0000 C   0  0  0  0  0  4           0  0  0
   -1.9763   -0.0118   -1.2451 C   0  0  0  0  0  4           0  0  0
   -2.7356    0.0183   -0.0756 C   0  0  0  0  0  4           0  0  0
    2.3178   -0.0000   -1.0577 C   0  0  0  0  0  4           0  0  0
    4.2122   -0.0614   -3.1580 C   0  0  0  0  0  4           0  0  0
    3.5687   -0.6114   -0.8867 C   0  0  0  0  0  4           0  0  0
    2.0334    0.5820   -2.3009 C   0  0  0  0  0  4           0  0  0
    4.5093   -0.6433   -1.9220 C   0  0  0  0  0  4           0  0  0
    2.9686    0.5526   -3.3410 C   0  0  0  0  0  4           0  0  0
    5.1692   -0.0782   -4.2863 C   0  0  0  0  0  4           0  0  0
   -1.9459   -0.0149    3.4806 C   0  0  0  0  0  4           0  0  0
    7.0327    0.9693   -5.4888 C   0  0  0  0  0  4           0  0  0
    6.1507    2.0970   -3.4577 C   0  0  0  0  0  4           0  0  0
   -2.8472   -0.0218    4.7137 C   0  0  2  0  0  4           0  0  0
   -3.7367    1.2290    4.7309 C   0  0  0  0  0  4           0  0  0
   -2.0225   -0.1278    6.0079 C   0  0  0  0  0  4           0  0  0
   -4.6131    1.2879    5.9792 C   0  0  0  0  0  4           0  0  0
   -2.9050   -0.0588    7.2524 C   0  0  0  0  0  4           0  0  0
   -3.7813    1.1890    7.2532 C   0  0  0  0  0  4           0  0  0
    8.3237    0.2604   -5.1156 C   0  0  0  0  0  4           0  0  0
    5.2551    3.2501   -3.8780 C   0  0  0  0  0  4           0  0  0
  1  6  2  0     0  0
  2 10  1  0     0  0
  2 21  1  0     0  0
  3 20  2  0     0  0
  4 10  2  0     0  0
  4 11  1  0     0  0
  5 11  2  0     0  0
  5 12  1  0     0  0
  6 13  1  0     0  0
  7 11  1  0     0  0
  7 14  1  0     0  0
  8 12  1  0     0  0
  9 20  1  0     0  0
  9 22  1  0     0  0
  9 23  1  0     0  0
 10 13  1  0     0  0
 12 13  2  0     0  0
 14 16  2  0     0  0
 14 17  1  0     0  0
 15 18  2  0     0  0
 15 19  1  0     0  0
 15 20  1  0     0  0
 16 18  1  0     0  0
 17 19  2  0     0  0
 21 24  1  0     0  0
 22 30  1  0     0  0
 23 31  1  0     0  0
 24 25  1  0     0  0
 24 26  1  0     0  0
 25 27  1  0     0  0
 26 28  1  0     0  0
 27 29  1  0     0  0
 28 29  1  0     0  0
M  END
> <Compound >
6

> <standard_type>
pIC50

> <# Confs.>
25

> <canonical_smiles>
NC1=C(N=O)C(OCC2CCCCC2)=NC(NC3=CC=C(C(N(CC)CC)=O)C=C3)=N1

> <standard_relation>
=

> <predicted_activity_value>
6.604673606930649

> <actual_activity_value>
6.698970004336019

> <Publication ID>
nan

> <standard_units>
nM

> hash
11749655514688934920

$$$$
6_
XXILIB    08252103513D 0   0.00000     0.00000

 31 33  0     1  0            999 V2000
   -4.6010   -0.5351   -1.0873 O   0  0  0  0  0  2           0  0  0
   -2.7474   -0.0001    2.2993 O   0  0  0  0  0  2           0  0  0
    5.5601    1.1394    4.6886 O   0  0  0  0  0  2           0  0  0
   -0.6706   -0.0000    1.1725 N   0  0  0  0  0  3           0  0  0
   -0.6200   -0.0021   -1.2031 N   0  0  0  0  0  3           0  0  0
   -4.1112    0.0204   -0.0969 N   0  0  0  0  0  3           0  0  0
    1.4054    0.0000    0.0000 N   0  0  0  0  0  3           0  0  0
   -2.5845    0.0178   -2.4998 N   0  0  0  0  0  3           0  0  0
    5.6428   -1.1759    4.7735 N   0  0  2  0  0  3           0  0  0
   -2.0216    0.0072    1.1181 C   0  0  0  0  0  4           0  0  0
    0.0000    0.0000    0.0000 C   0  0  0  0  0  4           0  0  0
   -1.9763   -0.0118   -1.2451 C   0  0  0  0  0  4           0  0  0
   -2.7356    0.0183   -0.0756 C   0  0  0  0  0  4           0  0  0
    2.3178    0.0000    1.0577 C   0  0  0  0  0  4           0  0  0
    4.2291    0.0220    3.1434 C   0  0  0  0  0  4           0  0  0
    3.6928    0.0000    0.7797 C   0  0  0  0  0  4           0  0  0
    1.9173    0.0097    2.4011 C   0  0  0  0  0  4           0  0  0
    4.6418    0.0097    1.8077 C   0  0  0  0  0  4           0  0  0
    2.8607    0.0207    3.4341 C   0  0  0  0  0  4           0  0  0
    5.1937    0.0426    4.2651 C   0  0  0  0  0  4           0  0  0
   -2.0976   -0.6640    3.3833 C   0  0  0  0  0  4           0  0  0
    6.5972   -1.1773    5.8645 C   0  0  0  0  0  4           0  0  0
    5.2214   -2.4833    4.2593 C   0  0  0  0  0  4           0  0  0
   -2.9847   -0.6099    4.6256 C   0  0  2  0  0  4           0  0  0
   -2.2996   -1.3202    5.8012 C   0  0  0  0  0  4           0  0  0
   -4.3709   -1.2168    4.3491 C   0  0  0  0  0  4           0  0  0
   -3.1802   -1.3376    7.0479 C   0  0  0  0  0  4           0  0  0
   -5.2427   -1.2393    5.6027 C   0  0  0  0  0  4           0  0  0
   -4.5473   -1.9481    6.7598 C   0  0  0  0  0  4           0  0  0
    5.9128   -1.1817    7.2210 C   0  0  0  0  0  4           0  0  0
    6.1291   -2.9779    3.1458 C   0  0  0  0  0  4           0  0  0
  1  6  2  0     0  0
  2 10  1  0     0  0
  2 21  1  0     0  0
  3 20  2  0     0  0
  4 10  2  0     0  0
  4 11  1  0     0  0
  5 11  2  0     0  0
  5 12  1  0     0  0
  6 13  1  0     0  0
  7 11  1  0     0  0
  7 14  1  0     0  0
  8 12  1  0     0  0
  9 20  1  0     0  0
  9 22  1  0     0  0
  9 23  1  0     0  0
 10 13  1  0     0  0
 12 13  2  0     0  0
 14 16  2  0     0  0
 14 17  1  0     0  0
 15 18  2  0     0  0
 15 19  1  0     0  0
 15 20  1  0     0  0
 16 18  1  0     0  0
 17 19  2  0     0  0
 21 24  1  0     0  0
 22 30  1  0     0  0
 23 31  1  0     0  0
 24 25  1  0     0  0
 24 26  1  0     0  0
 25 27  1  0     0  0
 26 28  1  0     0  0
 27 29  1  0     0  0
 28 29  1  0     0  0
M  END
> <Compound >
6

> <standard_type>
pIC50

> <# Confs.>
25

> <canonical_smiles>
NC1=C(N=O)C(OCC2CCCCC2)=NC(NC3=CC=C(C(N(CC)CC)=O)C=C3)=N1

> <standard_relation>
=

> <predicted_activity_value>
6.604673606930649

> <actual_activity_value>
6.698970004336019

> <Publication ID>
nan

> <standard_units>
nM

> hash
11749655514688934920

$$$$
6_
XXILIB    08252103513D 0   0.00000     0.00000

 31 33  0     1  0            999 V2000
   -4.5994    0.5941   -1.0776 O   0  0  0  0  0  2           0  0  0
   -2.7474   -0.0001    2.2993 O   0  0  0  0  0  2           0  0  0
    5.1203    1.0284    5.0680 O   0  0  0  0  0  2           0  0  0
   -0.6706    0.0000    1.1725 N   0  0  0  0  0  3           0  0  0
   -0.6200   -0.0021   -1.2031 N   0  0  0  0  0  3           0  0  0
   -4.1112    0.0204   -0.0969 N   0  0  0  0  0  3           0  0  0
    1.4054    0.0000   -0.0000 N   0  0  0  0  0  3           0  0  0
   -2.5845    0.0178   -2.4998 N   0  0  0  0  0  3           0  0  0
    6.0788   -0.9731    4.3974 N   0  0  2  0  0  3           0  0  0
   -2.0216    0.0072    1.1181 C   0  0  0  0  0  4           0  0  0
    0.0000    0.0000    0.0000 C   0  0  0  0  0  4           0  0  0
   -1.9763   -0.0118   -1.2451 C   0  0  0  0  0  4           0  0  0
   -2.7356    0.0183   -0.0756 C   0  0  0  0  0  4           0  0  0
    2.3178    0.0000    1.0577 C   0  0  0  0  0  4           0  0  0
    4.2122    0.0614    3.1580 C   0  0  0  0  0  4           0  0  0
    3.5687    0.6114    0.8867 C   0  0  0  0  0  4           0  0  0
    2.0334   -0.5820    2.3009 C   0  0  0  0  0  4           0  0  0
    4.5093    0.6433    1.9220 C   0  0  0  0  0  4           0  0  0
    2.9686   -0.5526    3.3410 C   0  0  0  0  0  4           0  0  0
    5.1692    0.0782    4.2863 C   0  0  0  0  0  4           0  0  0
   -1.9459   -0.0149    3.4806 C   0  0  0  0  0  4           0  0  0
    7.0327   -0.9693    5.4888 C   0  0  0  0  0  4           0  0  0
    6.1507   -2.0970    3.4577 C   0  0  0  0  0  4           0  0  0
   -2.8472   -0.0218    4.7137 C   0  0  2  0  0  4           0  0  0
   -3.7752   -1.2494    4.7586 C   0  0  0  0  0  4           0  0  0
   -2.0256    0.0776    6.0077 C   0  0  0  0  0  4           0  0  0
   -3.0350   -2.5432    5.0946 C   0  0  0  0  0  4           0  0  0
   -1.2827   -1.2151    6.3408 C   0  0  0  0  0  4           0  0  0
   -2.2290   -2.4111    6.3831 C   0  0  0  0  0  4           0  0  0
    8.3237   -0.2604    5.1156 C   0  0  0  0  0  4           0  0  0
    5.2551   -3.2501    3.8780 C   0  0  0  0  0  4           0  0  0
  1  6  2  0     0  0
  2 10  1  0     0  0
  2 21  1  0     0  0
  3 20  2  0     0  0
  4 10  2  0     0  0
  4 11  1  0     0  0
  5 11  2  0     0  0
  5 12  1  0     0  0
  6 13  1  0     0  0
  7 11  1  0     0  0
  7 14  1  0     0  0
  8 12  1  0     0  0
  9 20  1  0     0  0
  9 22  1  0     0  0
  9 23  1  0     0  0
 10 13  1  0     0  0
 12 13  2  0     0  0
 14 16  2  0     0  0
 14 17  1  0     0  0
 15 18  2  0     0  0
 15 19  1  0     0  0
 15 20  1  0     0  0
 16 18  1  0     0  0
 17 19  2  0     0  0
 21 24  1  0     0  0
 22 30  1  0     0  0
 23 31  1  0     0  0
 24 25  1  0     0  0
 24 26  1  0     0  0
 25 27  1  0     0  0
 26 28  1  0     0  0
 27 29  1  0     0  0
 28 29  1  0     0  0
M  END
> <Compound >
6

> <standard_type>
pIC50

> <# Confs.>
25

> <canonical_smiles>
NC1=C(N=O)C(OCC2CCCCC2)=NC(NC3=CC=C(C(N(CC)CC)=O)C=C3)=N1

> <standard_relation>
=

> <predicted_activity_value>
6.604673606930649

> <actual_activity_value>
6.698970004336019

> <Publication ID>
nan

> <standard_units>
nM

> hash
11749655514688934920

$$$$
6_
XXILIB    08252103513D 0   0.00000     0.00000

 31 33  0     1  0            999 V2000
   -4.6010   -0.5351   -1.0873 O   0  0  0  0  0  2           0  0  0
   -2.7474   -0.0001    2.2993 O   0  0  0  0  0  2           0  0  0
    5.5601    1.1394    4.6886 O   0  0  0  0  0  2           0  0  0
   -0.6706   -0.0000    1.1725 N   0  0  0  0  0  3           0  0  0
   -0.6200   -0.0021   -1.2031 N   0  0  0  0  0  3           0  0  0
   -4.1112    0.0204   -0.0969 N   0  0  0  0  0  3           0  0  0
    1.4054    0.0000    0.0000 N   0  0  0  0  0  3           0  0  0
   -2.5845    0.0178   -2.4998 N   0  0  0  0  0  3           0  0  0
    5.6428   -1.1759    4.7735 N   0  0  2  0  0  3           0  0  0
   -2.0216    0.0072    1.1181 C   0  0  0  0  0  4           0  0  0
    0.0000    0.0000    0.0000 C   0  0  0  0  0  4           0  0  0
   -1.9763   -0.0118   -1.2451 C   0  0  0  0  0  4           0  0  0
   -2.7356    0.0183   -0.0756 C   0  0  0  0  0  4           0  0  0
    2.3178    0.0000    1.0577 C   0  0  0  0  0  4           0  0  0
    4.2291    0.0220    3.1434 C   0  0  0  0  0  4           0  0  0
    3.6928    0.0000    0.7797 C   0  0  0  0  0  4           0  0  0
    1.9173    0.0097    2.4011 C   0  0  0  0  0  4           0  0  0
    4.6418    0.0097    1.8077 C   0  0  0  0  0  4           0  0  0
    2.8607    0.0207    3.4341 C   0  0  0  0  0  4           0  0  0
    5.1937    0.0426    4.2651 C   0  0  0  0  0  4           0  0  0
   -2.0976   -0.6640    3.3833 C   0  0  0  0  0  4           0  0  0
    6.5972   -1.1773    5.8645 C   0  0  0  0  0  4           0  0  0
    5.2214   -2.4833    4.2593 C   0  0  0  0  0  4           0  0  0
   -2.9847   -0.6099    4.6256 C   0  0  2  0  0  4           0  0  0
   -3.2553    0.8474    5.0243 C   0  0  0  0  0  4           0  0  0
   -2.3593   -1.3922    5.7931 C   0  0  0  0  0  4           0  0  0
   -4.0927    0.9439    6.2969 C   0  0  0  0  0  4           0  0  0
   -3.1977   -1.2834    7.0650 C   0  0  0  0  0  4           0  0  0
   -3.4567    0.1700    7.4463 C   0  0  0  0  0  4           0  0  0
    5.9128   -1.1817    7.2210 C   0  0  0  0  0  4           0  0  0
    6.1291   -2.9779    3.1458 C   0  0  0  0  0  4           0  0  0
  1  6  2  0     0  0
  2 10  1  0     0  0
  2 21  1  0     0  0
  3 20  2  0     0  0
  4 10  2  0     0  0
  4 11  1  0     0  0
  5 11  2  0     0  0
  5 12  1  0     0  0
  6 13  1  0     0  0
  7 11  1  0     0  0
  7 14  1  0     0  0
  8 12  1  0     0  0
  9 20  1  0     0  0
  9 22  1  0     0  0
  9 23  1  0     0  0
 10 13  1  0     0  0
 12 13  2  0     0  0
 14 16  2  0     0  0
 14 17  1  0     0  0
 15 18  2  0     0  0
 15 19  1  0     0  0
 15 20  1  0     0  0
 16 18  1  0     0  0
 17 19  2  0     0  0
 21 24  1  0     0  0
 22 30  1  0     0  0
 23 31  1  0     0  0
 24 25  1  0     0  0
 24 26  1  0     0  0
 25 27  1  0     0  0
 26 28  1  0     0  0
 27 29  1  0     0  0
 28 29  1  0     0  0
M  END
> <Compound >
6

> <standard_type>
pIC50

> <# Confs.>
25

> <canonical_smiles>
NC1=C(N=O)C(OCC2CCCCC2)=NC(NC3=CC=C(C(N(CC)CC)=O)C=C3)=N1

> <standard_relation>
=

> <predicted_activity_value>
6.604673606930649

> <actual_activity_value>
6.698970004336019

> <Publication ID>
nan

> <standard_units>
nM

> hash
11749655514688934920

$$$$
6_
XXILIB    08252103513D 0   0.00000     0.00000

 31 33  0     1  0            999 V2000
   -4.6010   -0.5351   -1.0873 O   0  0  0  0  0  2           0  0  0
   -2.7474   -0.0001    2.2993 O   0  0  0  0  0  2           0  0  0
    5.5601    1.1394    4.6886 O   0  0  0  0  0  2           0  0  0
   -0.6706    0.0000    1.1725 N   0  0  0  0  0  3           0  0  0
   -0.6200   -0.0021   -1.2031 N   0  0  0  0  0  3           0  0  0
   -4.1112    0.0204   -0.0969 N   0  0  0  0  0  3           0  0  0
    1.4054    0.0000    0.0000 N   0  0  0  0  0  3           0  0  0
   -2.5845    0.0178   -2.4998 N   0  0  0  0  0  3           0  0  0
    5.6428   -1.1759    4.7735 N   0  0  2  0  0  3           0  0  0
   -2.0216    0.0072    1.1181 C   0  0  0  0  0  4           0  0  0
    0.0000    0.0000    0.0000 C   0  0  0  0  0  4           0  0  0
   -1.9763   -0.0118   -1.2451 C   0  0  0  0  0  4           0  0  0
   -2.7356    0.0183   -0.0756 C   0  0  0  0  0  4           0  0  0
    2.3178    0.0000    1.0577 C   0  0  0  0  0  4           0  0  0
    4.2291    0.0220    3.1434 C   0  0  0  0  0  4           0  0  0
    3.6928    0.0000    0.7797 C   0  0  0  0  0  4           0  0  0
    1.9173    0.0097    2.4011 C   0  0  0  0  0  4           0  0  0
    4.6418    0.0097    1.8077 C   0  0  0  0  0  4           0  0  0
    2.8607    0.0207    3.4341 C   0  0  0  0  0  4           0  0  0
    5.1937    0.0426    4.2651 C   0  0  0  0  0  4           0  0  0
   -2.0912    0.6373    3.3953 C   0  0  0  0  0  4           0  0  0
    6.5972   -1.1773    5.8645 C   0  0  0  0  0  4           0  0  0
    5.2214   -2.4833    4.2593 C   0  0  0  0  0  4           0  0  0
   -2.9789    0.5691    4.6364 C   0  0  2  0  0  4           0  0  0
   -3.2639   -0.8926    5.0083 C   0  0  0  0  0  4           0  0  0
   -4.2885    1.3492    4.4302 C   0  0  0  0  0  4           0  0  0
   -4.1962   -1.0030    6.2119 C   0  0  0  0  0  4           0  0  0
   -5.2198    1.2265    5.6343 C   0  0  0  0  0  4           0  0  0
   -5.4921   -0.2310    5.9897 C   0  0  0  0  0  4           0  0  0
    5.9128   -1.1817    7.2210 C   0  0  0  0  0  4           0  0  0
    6.1291   -2.9779    3.1458 C   0  0  0  0  0  4           0  0  0
  1  6  2  0     0  0
  2 10  1  0     0  0
  2 21  1  0     0  0
  3 20  2  0     0  0
  4 10  2  0     0  0
  4 11  1  0     0  0
  5 11  2  0     0  0
  5 12  1  0     0  0
  6 13  1  0     0  0
  7 11  1  0     0  0
  7 14  1  0     0  0
  8 12  1  0     0  0
  9 20  1  0     0  0
  9 22  1  0     0  0
  9 23  1  0     0  0
 10 13  1  0     0  0
 12 13  2  0     0  0
 14 16  2  0     0  0
 14 17  1  0     0  0
 15 18  2  0     0  0
 15 19  1  0     0  0
 15 20  1  0     0  0
 16 18  1  0     0  0
 17 19  2  0     0  0
 21 24  1  0     0  0
 22 30  1  0     0  0
 23 31  1  0     0  0
 24 25  1  0     0  0
 24 26  1  0     0  0
 25 27  1  0     0  0
 26 28  1  0     0  0
 27 29  1  0     0  0
 28 29  1  0     0  0
M  END
> <Compound >
6

> <standard_type>
pIC50

> <# Confs.>
25

> <canonical_smiles>
NC1=C(N=O)C(OCC2CCCCC2)=NC(NC3=CC=C(C(N(CC)CC)=O)C=C3)=N1

> <standard_relation>
=

> <predicted_activity_value>
6.604673606930649

> <actual_activity_value>
6.698970004336019

> <Publication ID>
nan

> <standard_units>
nM

> hash
11749655514688934920

$$$$
6_
XXILIB    08252103513D 0   0.00000     0.00000

 31 33  0     1  0            999 V2000
   -4.6010   -0.5351   -1.0873 O   0  0  0  0  0  2           0  0  0
   -2.7474   -0.0001    2.2993 O   0  0  0  0  0  2           0  0  0
    5.1203   -1.0284   -5.0680 O   0  0  0  0  0  2           0  0  0
   -0.6706    0.0000    1.1725 N   0  0  0  0  0  3           0  0  0
   -0.6200   -0.0021   -1.2031 N   0  0  0  0  0  3           0  0  0
   -4.1112    0.0204   -0.0969 N   0  0  0  0  0  3           0  0  0
    1.4054   -0.0000    0.0000 N   0  0  0  0  0  3           0  0  0
   -2.5845    0.0178   -2.4998 N   0  0  0  0  0  3           0  0  0
    6.0788    0.9731   -4.3974 N   0  0  2  0  0  3           0  0  0
   -2.0216    0.0072    1.1181 C   0  0  0  0  0  4           0  0  0
    0.0000    0.0000    0.0000 C   0  0  0  0  0  4           0  0  0
   -1.9763   -0.0118   -1.2451 C   0  0  0  0  0  4           0  0  0
   -2.7356    0.0183   -0.0756 C   0  0  0  0  0  4           0  0  0
    2.3178   -0.0000   -1.0577 C   0  0  0  0  0  4           0  0  0
    4.2122   -0.0614   -3.1580 C   0  0  0  0  0  4           0  0  0
    3.5687   -0.6114   -0.8867 C   0  0  0  0  0  4           0  0  0
    2.0334    0.5820   -2.3009 C   0  0  0  0  0  4           0  0  0
    4.5093   -0.6433   -1.9220 C   0  0  0  0  0  4           0  0  0
    2.9686    0.5526   -3.3410 C   0  0  0  0  0  4           0  0  0
    5.1692   -0.0782   -4.2863 C   0  0  0  0  0  4           0  0  0
   -1.9459   -0.0149    3.4806 C   0  0  0  0  0  4           0  0  0
    7.0327    0.9693   -5.4888 C   0  0  0  0  0  4           0  0  0
    6.1507    2.0970   -3.4577 C   0  0  0  0  0  4           0  0  0
   -2.8472   -0.0218    4.7137 C   0  0  2  0  0  4           0  0  0
   -3.7490   -1.2639    4.7080 C   0  0  0  0  0  4           0  0  0
   -3.6850    1.2653    4.8005 C   0  0  0  0  0  4           0  0  0
   -4.7064   -1.2785    5.8967 C   0  0  0  0  0  4           0  0  0
   -4.6469    1.2395    5.9864 C   0  0  0  0  0  4           0  0  0
   -5.5344   -0.0001    5.9651 C   0  0  0  0  0  4           0  0  0
    8.3237    0.2604   -5.1156 C   0  0  0  0  0  4           0  0  0
    5.2551    3.2501   -3.8780 C   0  0  0  0  0  4           0  0  0
  1  6  2  0     0  0
  2 10  1  0     0  0
  2 21  1  0     0  0
  3 20  2  0     0  0
  4 10  2  0     0  0
  4 11  1  0     0  0
  5 11  2  0     0  0
  5 12  1  0     0  0
  6 13  1  0     0  0
  7 11  1  0     0  0
  7 14  1  0     0  0
  8 12  1  0     0  0
  9 20  1  0     0  0
  9 22  1  0     0  0
  9 23  1  0     0  0
 10 13  1  0     0  0
 12 13  2  0     0  0
 14 16  2  0     0  0
 14 17  1  0     0  0
 15 18  2  0     0  0
 15 19  1  0     0  0
 15 20  1  0     0  0
 16 18  1  0     0  0
 17 19  2  0     0  0
 21 24  1  0     0  0
 22 30  1  0     0  0
 23 31  1  0     0  0
 24 25  1  0     0  0
 24 26  1  0     0  0
 25 27  1  0     0  0
 26 28  1  0     0  0
 27 29  1  0     0  0
 28 29  1  0     0  0
M  END
> <Compound >
6

> <standard_type>
pIC50

> <# Confs.>
25

> <canonical_smiles>
NC1=C(N=O)C(OCC2CCCCC2)=NC(NC3=CC=C(C(N(CC)CC)=O)C=C3)=N1

> <standard_relation>
=

> <predicted_activity_value>
6.604673606930649

> <actual_activity_value>
6.698970004336019

> <Publication ID>
nan

> <standard_units>
nM

> hash
11749655514688934920

$$$$
6_
XXILIB    08252103513D 0   0.00000     0.00000

 31 33  0     1  0            999 V2000
   -4.6010   -0.5351   -1.0873 O   0  0  0  0  0  2           0  0  0
   -2.7474   -0.0001    2.2993 O   0  0  0  0  0  2           0  0  0
    5.5601    1.1394    4.6886 O   0  0  0  0  0  2           0  0  0
   -0.6706   -0.0000    1.1725 N   0  0  0  0  0  3           0  0  0
   -0.6200   -0.0021   -1.2031 N   0  0  0  0  0  3           0  0  0
   -4.1112    0.0204   -0.0969 N   0  0  0  0  0  3           0  0  0
    1.4054    0.0000    0.0000 N   0  0  0  0  0  3           0  0  0
   -2.5845    0.0178   -2.4998 N   0  0  0  0  0  3           0  0  0
    5.6428   -1.1759    4.7735 N   0  0  2  0  0  3           0  0  0
   -2.0216    0.0072    1.1181 C   0  0  0  0  0  4           0  0  0
    0.0000    0.0000    0.0000 C   0  0  0  0  0  4           0  0  0
   -1.9763   -0.0118   -1.2451 C   0  0  0  0  0  4           0  0  0
   -2.7356    0.0183   -0.0756 C   0  0  0  0  0  4           0  0  0
    2.3178    0.0000    1.0577 C   0  0  0  0  0  4           0  0  0
    4.2291    0.0220    3.1434 C   0  0  0  0  0  4           0  0  0
    3.6928    0.0000    0.7797 C   0  0  0  0  0  4           0  0  0
    1.9173    0.0097    2.4011 C   0  0  0  0  0  4           0  0  0
    4.6418    0.0097    1.8077 C   0  0  0  0  0  4           0  0  0
    2.8607    0.0207    3.4341 C   0  0  0  0  0  4           0  0  0
    5.1937    0.0426    4.2651 C   0  0  0  0  0  4           0  0  0
   -2.0976   -0.6640    3.3833 C   0  0  0  0  0  4           0  0  0
    6.5972   -1.1773    5.8645 C   0  0  0  0  0  4           0  0  0
    5.2214   -2.4833    4.2593 C   0  0  0  0  0  4           0  0  0
   -2.9847   -0.6099    4.6256 C   0  0  2  0  0  4           0  0  0
   -2.2996   -1.3202    5.8012 C   0  0  0  0  0  4           0  0  0
   -4.3709   -1.2168    4.3491 C   0  0  0  0  0  4           0  0  0
   -3.1802   -1.3376    7.0479 C   0  0  0  0  0  4           0  0  0
   -5.2427   -1.2393    5.6027 C   0  0  0  0  0  4           0  0  0
   -4.5473   -1.9481    6.7598 C   0  0  0  0  0  4           0  0  0
    8.0327   -1.1740    5.3667 C   0  0  0  0  0  4           0  0  0
    3.9859   -3.0056    4.9729 C   0  0  0  0  0  4           0  0  0
  1  6  2  0     0  0
  2 10  1  0     0  0
  2 21  1  0     0  0
  3 20  2  0     0  0
  4 10  2  0     0  0
  4 11  1  0     0  0
  5 11  2  0     0  0
  5 12  1  0     0  0
  6 13  1  0     0  0
  7 11  1  0     0  0
  7 14  1  0     0  0
  8 12  1  0     0  0
  9 20  1  0     0  0
  9 22  1  0     0  0
  9 23  1  0     0  0
 10 13  1  0     0  0
 12 13  2  0     0  0
 14 16  2  0     0  0
 14 17  1  0     0  0
 15 18  2  0     0  0
 15 19  1  0     0  0
 15 20  1  0     0  0
 16 18  1  0     0  0
 17 19  2  0     0  0
 21 24  1  0     0  0
 22 30  1  0     0  0
 23 31  1  0     0  0
 24 25  1  0     0  0
 24 26  1  0     0  0
 25 27  1  0     0  0
 26 28  1  0     0  0
 27 29  1  0     0  0
 28 29  1  0     0  0
M  END
> <Compound >
6

> <standard_type>
pIC50

> <# Confs.>
25

> <canonical_smiles>
NC1=C(N=O)C(OCC2CCCCC2)=NC(NC3=CC=C(C(N(CC)CC)=O)C=C3)=N1

> <standard_relation>
=

> <predicted_activity_value>
6.604673606930649

> <actual_activity_value>
6.698970004336019

> <Publication ID>
nan

> <standard_units>
nM

> hash
11749655514688934920

$$$$
6_
XXILIB    08252103513D 0   0.00000     0.00000

 31 33  0     1  0            999 V2000
   -4.6010   -0.5351   -1.0873 O   0  0  0  0  0  2           0  0  0
   -2.7474   -0.0001    2.2993 O   0  0  0  0  0  2           0  0  0
    5.5601    1.1394    4.6886 O   0  0  0  0  0  2           0  0  0
   -0.6706   -0.0000    1.1725 N   0  0  0  0  0  3           0  0  0
   -0.6200   -0.0021   -1.2031 N   0  0  0  0  0  3           0  0  0
   -4.1112    0.0204   -0.0969 N   0  0  0  0  0  3           0  0  0
    1.4054    0.0000    0.0000 N   0  0  0  0  0  3           0  0  0
   -2.5845    0.0178   -2.4998 N   0  0  0  0  0  3           0  0  0
    5.6428   -1.1759    4.7735 N   0  0  2  0  0  3           0  0  0
   -2.0216    0.0072    1.1181 C   0  0  0  0  0  4           0  0  0
    0.0000    0.0000    0.0000 C   0  0  0  0  0  4           0  0  0
   -1.9763   -0.0118   -1.2451 C   0  0  0  0  0  4           0  0  0
   -2.7356    0.0183   -0.0756 C   0  0  0  0  0  4           0  0  0
    2.3178    0.0000    1.0577 C   0  0  0  0  0  4           0  0  0
    4.2291    0.0220    3.1434 C   0  0  0  0  0  4           0  0  0
    3.6928    0.0000    0.7797 C   0  0  0  0  0  4           0  0  0
    1.9173    0.0097    2.4011 C   0  0  0  0  0  4           0  0  0
    4.6418    0.0097    1.8077 C   0  0  0  0  0  4           0  0  0
    2.8607    0.0207    3.4341 C   0  0  0  0  0  4           0  0  0
    5.1937    0.0426    4.2651 C   0  0  0  0  0  4           0  0  0
   -2.0976   -0.6640    3.3833 C   0  0  0  0  0  4           0  0  0
    6.5972   -1.1773    5.8645 C   0  0  0  0  0  4           0  0  0
    5.2214   -2.4833    4.2593 C   0  0  0  0  0  4           0  0  0
   -2.9847   -0.6099    4.6256 C   0  0  2  0  0  4           0  0  0
   -3.2553    0.8474    5.0243 C   0  0  0  0  0  4           0  0  0
   -2.3593   -1.3922    5.7931 C   0  0  0  0  0  4           0  0  0
   -4.0927    0.9439    6.2969 C   0  0  0  0  0  4           0  0  0
   -3.1977   -1.2834    7.0650 C   0  0  0  0  0  4           0  0  0
   -3.4567    0.1700    7.4463 C   0  0  0  0  0  4           0  0  0
    8.0327   -1.1740    5.3667 C   0  0  0  0  0  4           0  0  0
    3.9859   -3.0056    4.9729 C   0  0  0  0  0  4           0  0  0
  1  6  2  0     0  0
  2 10  1  0     0  0
  2 21  1  0     0  0
  3 20  2  0     0  0
  4 10  2  0     0  0
  4 11  1  0     0  0
  5 11  2  0     0  0
  5 12  1  0     0  0
  6 13  1  0     0  0
  7 11  1  0     0  0
  7 14  1  0     0  0
  8 12  1  0     0  0
  9 20  1  0     0  0
  9 22  1  0     0  0
  9 23  1  0     0  0
 10 13  1  0     0  0
 12 13  2  0     0  0
 14 16  2  0     0  0
 14 17  1  0     0  0
 15 18  2  0     0  0
 15 19  1  0     0  0
 15 20  1  0     0  0
 16 18  1  0     0  0
 17 19  2  0     0  0
 21 24  1  0     0  0
 22 30  1  0     0  0
 23 31  1  0     0  0
 24 25  1  0     0  0
 24 26  1  0     0  0
 25 27  1  0     0  0
 26 28  1  0     0  0
 27 29  1  0     0  0
 28 29  1  0     0  0
M  END
> <Compound >
6

> <standard_type>
pIC50

> <# Confs.>
25

> <canonical_smiles>
NC1=C(N=O)C(OCC2CCCCC2)=NC(NC3=CC=C(C(N(CC)CC)=O)C=C3)=N1

> <standard_relation>
=

> <predicted_activity_value>
6.604673606930649

> <actual_activity_value>
6.698970004336019

> <Publication ID>
nan

> <standard_units>
nM

> hash
11749655514688934920

$$$$
6_
XXILIB    08252103513D 0   0.00000     0.00000

 31 33  0     1  0            999 V2000
   -4.6010   -0.5351   -1.0873 O   0  0  0  0  0  2           0  0  0
   -2.7474   -0.0001    2.2993 O   0  0  0  0  0  2           0  0  0
    5.5601    1.1394    4.6886 O   0  0  0  0  0  2           0  0  0
   -0.6706    0.0000    1.1725 N   0  0  0  0  0  3           0  0  0
   -0.6200   -0.0021   -1.2031 N   0  0  0  0  0  3           0  0  0
   -4.1112    0.0204   -0.0969 N   0  0  0  0  0  3           0  0  0
    1.4054    0.0000    0.0000 N   0  0  0  0  0  3           0  0  0
   -2.5845    0.0178   -2.4998 N   0  0  0  0  0  3           0  0  0
    5.6428   -1.1759    4.7735 N   0  0  2  0  0  3           0  0  0
   -2.0216    0.0072    1.1181 C   0  0  0  0  0  4           0  0  0
    0.0000    0.0000    0.0000 C   0  0  0  0  0  4           0  0  0
   -1.9763   -0.0118   -1.2451 C   0  0  0  0  0  4           0  0  0
   -2.7356    0.0183   -0.0756 C   0  0  0  0  0  4           0  0  0
    2.3178    0.0000    1.0577 C   0  0  0  0  0  4           0  0  0
    4.2291    0.0220    3.1434 C   0  0  0  0  0  4           0  0  0
    3.6928    0.0000    0.7797 C   0  0  0  0  0  4           0  0  0
    1.9173    0.0097    2.4011 C   0  0  0  0  0  4           0  0  0
    4.6418    0.0097    1.8077 C   0  0  0  0  0  4           0  0  0
    2.8607    0.0207    3.4341 C   0  0  0  0  0  4           0  0  0
    5.1937    0.0426    4.2651 C   0  0  0  0  0  4           0  0  0
   -2.0912    0.6373    3.3953 C   0  0  0  0  0  4           0  0  0
    6.5972   -1.1773    5.8645 C   0  0  0  0  0  4           0  0  0
    5.2214   -2.4833    4.2593 C   0  0  0  0  0  4           0  0  0
   -2.9789    0.5691    4.6364 C   0  0  2  0  0  4           0  0  0
   -3.2639   -0.8926    5.0083 C   0  0  0  0  0  4           0  0  0
   -4.2885    1.3492    4.4302 C   0  0  0  0  0  4           0  0  0
   -4.1962   -1.0030    6.2119 C   0  0  0  0  0  4           0  0  0
   -5.2198    1.2265    5.6343 C   0  0  0  0  0  4           0  0  0
   -5.4921   -0.2310    5.9897 C   0  0  0  0  0  4           0  0  0
    8.0327   -1.1740    5.3667 C   0  0  0  0  0  4           0  0  0
    3.9859   -3.0056    4.9729 C   0  0  0  0  0  4           0  0  0
  1  6  2  0     0  0
  2 10  1  0     0  0
  2 21  1  0     0  0
  3 20  2  0     0  0
  4 10  2  0     0  0
  4 11  1  0     0  0
  5 11  2  0     0  0
  5 12  1  0     0  0
  6 13  1  0     0  0
  7 11  1  0     0  0
  7 14  1  0     0  0
  8 12  1  0     0  0
  9 20  1  0     0  0
  9 22  1  0     0  0
  9 23  1  0     0  0
 10 13  1  0     0  0
 12 13  2  0     0  0
 14 16  2  0     0  0
 14 17  1  0     0  0
 15 18  2  0     0  0
 15 19  1  0     0  0
 15 20  1  0     0  0
 16 18  1  0     0  0
 17 19  2  0     0  0
 21 24  1  0     0  0
 22 30  1  0     0  0
 23 31  1  0     0  0
 24 25  1  0     0  0
 24 26  1  0     0  0
 25 27  1  0     0  0
 26 28  1  0     0  0
 27 29  1  0     0  0
 28 29  1  0     0  0
M  END
> <Compound >
6

> <standard_type>
pIC50

> <# Confs.>
25

> <canonical_smiles>
NC1=C(N=O)C(OCC2CCCCC2)=NC(NC3=CC=C(C(N(CC)CC)=O)C=C3)=N1

> <standard_relation>
=

> <predicted_activity_value>
6.604673606930649

> <actual_activity_value>
6.698970004336019

> <Publication ID>
nan

> <standard_units>
nM

> hash
11749655514688934920

$$$$
6_
XXILIB    08252103513D 0   0.00000     0.00000

 31 33  0     1  0            999 V2000
   -4.6010   -0.5351   -1.0873 O   0  0  0  0  0  2           0  0  0
   -2.7474   -0.0001    2.2993 O   0  0  0  0  0  2           0  0  0
    5.5601    1.1394    4.6886 O   0  0  0  0  0  2           0  0  0
   -0.6706    0.0000    1.1725 N   0  0  0  0  0  3           0  0  0
   -0.6200   -0.0021   -1.2031 N   0  0  0  0  0  3           0  0  0
   -4.1112    0.0204   -0.0969 N   0  0  0  0  0  3           0  0  0
    1.4054    0.0000    0.0000 N   0  0  0  0  0  3           0  0  0
   -2.5845    0.0178   -2.4998 N   0  0  0  0  0  3           0  0  0
    5.6428   -1.1759    4.7735 N   0  0  2  0  0  3           0  0  0
   -2.0216    0.0072    1.1181 C   0  0  0  0  0  4           0  0  0
    0.0000    0.0000    0.0000 C   0  0  0  0  0  4           0  0  0
   -1.9763   -0.0118   -1.2451 C   0  0  0  0  0  4           0  0  0
   -2.7356    0.0183   -0.0756 C   0  0  0  0  0  4           0  0  0
    2.3178    0.0000    1.0577 C   0  0  0  0  0  4           0  0  0
    4.2291    0.0220    3.1434 C   0  0  0  0  0  4           0  0  0
    3.6928    0.0000    0.7797 C   0  0  0  0  0  4           0  0  0
    1.9173    0.0097    2.4011 C   0  0  0  0  0  4           0  0  0
    4.6418    0.0097    1.8077 C   0  0  0  0  0  4           0  0  0
    2.8607    0.0207    3.4341 C   0  0  0  0  0  4           0  0  0
    5.1937    0.0426    4.2651 C   0  0  0  0  0  4           0  0  0
   -1.9459   -0.0149    3.4806 C   0  0  0  0  0  4           0  0  0
    6.5972   -1.1773    5.8645 C   0  0  0  0  0  4           0  0  0
    5.2214   -2.4833    4.2593 C   0  0  0  0  0  4           0  0  0
   -2.8472   -0.0218    4.7137 C   0  0  2  0  0  4           0  0  0
   -1.9998   -0.0378    5.9934 C   0  0  0  0  0  4           0  0  0
   -3.8230   -1.2106    4.6858 C   0  0  0  0  0  4           0  0  0
   -2.8651   -0.1028    7.2491 C   0  0  0  0  0  4           0  0  0
   -4.6787   -1.2744    5.9491 C   0  0  0  0  0  4           0  0  0
   -3.8214   -1.2896    7.2100 C   0  0  0  0  0  4           0  0  0
    5.9128   -1.1817    7.2210 C   0  0  0  0  0  4           0  0  0
    3.9859   -3.0056    4.9729 C   0  0  0  0  0  4           0  0  0
  1  6  2  0     0  0
  2 10  1  0     0  0
  2 21  1  0     0  0
  3 20  2  0     0  0
  4 10  2  0     0  0
  4 11  1  0     0  0
  5 11  2  0     0  0
  5 12  1  0     0  0
  6 13  1  0     0  0
  7 11  1  0     0  0
  7 14  1  0     0  0
  8 12  1  0     0  0
  9 20  1  0     0  0
  9 22  1  0     0  0
  9 23  1  0     0  0
 10 13  1  0     0  0
 12 13  2  0     0  0
 14 16  2  0     0  0
 14 17  1  0     0  0
 15 18  2  0     0  0
 15 19  1  0     0  0
 15 20  1  0     0  0
 16 18  1  0     0  0
 17 19  2  0     0  0
 21 24  1  0     0  0
 22 30  1  0     0  0
 23 31  1  0     0  0
 24 25  1  0     0  0
 24 26  1  0     0  0
 25 27  1  0     0  0
 26 28  1  0     0  0
 27 29  1  0     0  0
 28 29  1  0     0  0
M  END
> <Compound >
6

> <standard_type>
pIC50

> <# Confs.>
25

> <canonical_smiles>
NC1=C(N=O)C(OCC2CCCCC2)=NC(NC3=CC=C(C(N(CC)CC)=O)C=C3)=N1

> <standard_relation>
=

> <predicted_activity_value>
6.604673606930649

> <actual_activity_value>
6.698970004336019

> <Publication ID>
nan

> <standard_units>
nM

> hash
11749655514688934920

$$$$
6_
XXILIB    08252103513D 0   0.00000     0.00000

 31 33  0     1  0            999 V2000
   -4.6010   -0.5351   -1.0873 O   0  0  0  0  0  2           0  0  0
   -2.7474   -0.0001    2.2993 O   0  0  0  0  0  2           0  0  0
    5.5601    1.1394    4.6886 O   0  0  0  0  0  2           0  0  0
   -0.6706    0.0000    1.1725 N   0  0  0  0  0  3           0  0  0
   -0.6200   -0.0021   -1.2031 N   0  0  0  0  0  3           0  0  0
   -4.1112    0.0204   -0.0969 N   0  0  0  0  0  3           0  0  0
    1.4054    0.0000    0.0000 N   0  0  0  0  0  3           0  0  0
   -2.5845    0.0178   -2.4998 N   0  0  0  0  0  3           0  0  0
    5.6428   -1.1759    4.7735 N   0  0  2  0  0  3           0  0  0
   -2.0216    0.0072    1.1181 C   0  0  0  0  0  4           0  0  0
    0.0000    0.0000    0.0000 C   0  0  0  0  0  4           0  0  0
   -1.9763   -0.0118   -1.2451 C   0  0  0  0  0  4           0  0  0
   -2.7356    0.0183   -0.0756 C   0  0  0  0  0  4           0  0  0
    2.3178    0.0000    1.0577 C   0  0  0  0  0  4           0  0  0
    4.2291    0.0220    3.1434 C   0  0  0  0  0  4           0  0  0
    3.6928    0.0000    0.7797 C   0  0  0  0  0  4           0  0  0
    1.9173    0.0097    2.4011 C   0  0  0  0  0  4           0  0  0
    4.6418    0.0097    1.8077 C   0  0  0  0  0  4           0  0  0
    2.8607    0.0207    3.4341 C   0  0  0  0  0  4           0  0  0
    5.1937    0.0426    4.2651 C   0  0  0  0  0  4           0  0  0
   -1.9459   -0.0149    3.4806 C   0  0  0  0  0  4           0  0  0
    6.5972   -1.1773    5.8645 C   0  0  0  0  0  4           0  0  0
    5.2214   -2.4833    4.2593 C   0  0  0  0  0  4           0  0  0
   -2.8472   -0.0218    4.7137 C   0  0  2  0  0  4           0  0  0
   -3.7367    1.2290    4.7309 C   0  0  0  0  0  4           0  0  0
   -2.0225   -0.1278    6.0079 C   0  0  0  0  0  4           0  0  0
   -4.6131    1.2879    5.9792 C   0  0  0  0  0  4           0  0  0
   -2.9050   -0.0588    7.2524 C   0  0  0  0  0  4           0  0  0
   -3.7813    1.1890    7.2532 C   0  0  0  0  0  4           0  0  0
    5.9128   -1.1817    7.2210 C   0  0  0  0  0  4           0  0  0
    3.9859   -3.0056    4.9729 C   0  0  0  0  0  4           0  0  0
  1  6  2  0     0  0
  2 10  1  0     0  0
  2 21  1  0     0  0
  3 20  2  0     0  0
  4 10  2  0     0  0
  4 11  1  0     0  0
  5 11  2  0     0  0
  5 12  1  0     0  0
  6 13  1  0     0  0
  7 11  1  0     0  0
  7 14  1  0     0  0
  8 12  1  0     0  0
  9 20  1  0     0  0
  9 22  1  0     0  0
  9 23  1  0     0  0
 10 13  1  0     0  0
 12 13  2  0     0  0
 14 16  2  0     0  0
 14 17  1  0     0  0
 15 18  2  0     0  0
 15 19  1  0     0  0
 15 20  1  0     0  0
 16 18  1  0     0  0
 17 19  2  0     0  0
 21 24  1  0     0  0
 22 30  1  0     0  0
 23 31  1  0     0  0
 24 25  1  0     0  0
 24 26  1  0     0  0
 25 27  1  0     0  0
 26 28  1  0     0  0
 27 29  1  0     0  0
 28 29  1  0     0  0
M  END
> <Compound >
6

> <standard_type>
pIC50

> <# Confs.>
25

> <canonical_smiles>
NC1=C(N=O)C(OCC2CCCCC2)=NC(NC3=CC=C(C(N(CC)CC)=O)C=C3)=N1

> <standard_relation>
=

> <predicted_activity_value>
6.604673606930649

> <actual_activity_value>
6.698970004336019

> <Publication ID>
nan

> <standard_units>
nM

> hash
11749655514688934920

$$$$
6_
XXILIB    08252103513D 0   0.00000     0.00000

 31 33  0     1  0            999 V2000
   -4.5994    0.5941   -1.0776 O   0  0  0  0  0  2           0  0  0
   -2.7474   -0.0001    2.2993 O   0  0  0  0  0  2           0  0  0
    5.1203    1.0284    5.0680 O   0  0  0  0  0  2           0  0  0
   -0.6706    0.0000    1.1725 N   0  0  0  0  0  3           0  0  0
   -0.6200   -0.0021   -1.2031 N   0  0  0  0  0  3           0  0  0
   -4.1112    0.0204   -0.0969 N   0  0  0  0  0  3           0  0  0
    1.4054    0.0000   -0.0000 N   0  0  0  0  0  3           0  0  0
   -2.5845    0.0178   -2.4998 N   0  0  0  0  0  3           0  0  0
    6.0788   -0.9731    4.3974 N   0  0  2  0  0  3           0  0  0
   -2.0216    0.0072    1.1181 C   0  0  0  0  0  4           0  0  0
    0.0000    0.0000    0.0000 C   0  0  0  0  0  4           0  0  0
   -1.9763   -0.0118   -1.2451 C   0  0  0  0  0  4           0  0  0
   -2.7356    0.0183   -0.0756 C   0  0  0  0  0  4           0  0  0
    2.3178    0.0000    1.0577 C   0  0  0  0  0  4           0  0  0
    4.2122    0.0614    3.1580 C   0  0  0  0  0  4           0  0  0
    3.5687    0.6114    0.8867 C   0  0  0  0  0  4           0  0  0
    2.0334   -0.5820    2.3009 C   0  0  0  0  0  4           0  0  0
    4.5093    0.6433    1.9220 C   0  0  0  0  0  4           0  0  0
    2.9686   -0.5526    3.3410 C   0  0  0  0  0  4           0  0  0
    5.1692    0.0782    4.2863 C   0  0  0  0  0  4           0  0  0
   -2.0912    0.6373    3.3953 C   0  0  0  0  0  4           0  0  0
    7.0327   -0.9693    5.4888 C   0  0  0  0  0  4           0  0  0
    6.1507   -2.0970    3.4577 C   0  0  0  0  0  4           0  0  0
   -3.1315    1.2350    4.3406 C   0  0  2  0  0  4           0  0  0
   -3.9894    2.2718    3.6023 C   0  0  0  0  0  4           0  0  0
   -2.4676    1.8545    5.5822 C   0  0  0  0  0  4           0  0  0
   -5.0053    2.9346    4.5289 C   0  0  0  0  0  4           0  0  0
   -3.4889    2.5236    6.4996 C   0  0  0  0  0  4           0  0  0
   -4.3318    3.5499    5.7505 C   0  0  0  0  0  4           0  0  0
    6.4925   -1.6753    6.7210 C   0  0  0  0  0  4           0  0  0
    7.1022   -1.8180    2.3064 C   0  0  0  0  0  4           0  0  0
  1  6  2  0     0  0
  2 10  1  0     0  0
  2 21  1  0     0  0
  3 20  2  0     0  0
  4 10  2  0     0  0
  4 11  1  0     0  0
  5 11  2  0     0  0
  5 12  1  0     0  0
  6 13  1  0     0  0
  7 11  1  0     0  0
  7 14  1  0     0  0
  8 12  1  0     0  0
  9 20  1  0     0  0
  9 22  1  0     0  0
  9 23  1  0     0  0
 10 13  1  0     0  0
 12 13  2  0     0  0
 14 16  2  0     0  0
 14 17  1  0     0  0
 15 18  2  0     0  0
 15 19  1  0     0  0
 15 20  1  0     0  0
 16 18  1  0     0  0
 17 19  2  0     0  0
 21 24  1  0     0  0
 22 30  1  0     0  0
 23 31  1  0     0  0
 24 25  1  0     0  0
 24 26  1  0     0  0
 25 27  1  0     0  0
 26 28  1  0     0  0
 27 29  1  0     0  0
 28 29  1  0     0  0
M  END
> <Compound >
6

> <standard_type>
pIC50

> <# Confs.>
25

> <canonical_smiles>
NC1=C(N=O)C(OCC2CCCCC2)=NC(NC3=CC=C(C(N(CC)CC)=O)C=C3)=N1

> <standard_relation>
=

> <predicted_activity_value>
6.604673606930649

> <actual_activity_value>
6.698970004336019

> <Publication ID>
nan

> <standard_units>
nM

> hash
11749655514688934920

$$$$
6_
XXILIB    08252103513D 0   0.00000     0.00000

 31 33  0     1  0            999 V2000
   -4.6010   -0.5351   -1.0873 O   0  0  0  0  0  2           0  0  0
   -2.7474   -0.0001    2.2993 O   0  0  0  0  0  2           0  0  0
    5.5601    3.3310    3.4907 O   0  0  0  0  0  2           0  0  0
   -0.6706    0.0000    1.1725 N   0  0  0  0  0  3           0  0  0
   -0.6200   -0.0021   -1.2031 N   0  0  0  0  0  3           0  0  0
   -4.1112    0.0204   -0.0969 N   0  0  0  0  0  3           0  0  0
    1.4054    0.0000    0.0000 N   0  0  0  0  0  3           0  0  0
   -2.5845    0.0178   -2.4998 N   0  0  0  0  0  3           0  0  0
    5.6428    1.3684    4.7219 N   0  0  2  0  0  3           0  0  0
   -2.0216    0.0072    1.1181 C   0  0  0  0  0  4           0  0  0
    0.0000    0.0000    0.0000 C   0  0  0  0  0  4           0  0  0
   -1.9763   -0.0118   -1.2451 C   0  0  0  0  0  4           0  0  0
   -2.7356    0.0183   -0.0756 C   0  0  0  0  0  4           0  0  0
    2.3178    0.5288    0.9160 C   0  0  0  0  0  4           0  0  0
    4.2291    1.5907    2.7113 C   0  0  0  0  0  4           0  0  0
    3.6928    0.3898    0.6752 C   0  0  0  0  0  4           0  0  0
    1.9173    1.2089    2.0745 C   0  0  0  0  0  4           0  0  0
    4.6418    0.9123    1.5607 C   0  0  0  0  0  4           0  0  0
    2.8607    1.7350    2.9636 C   0  0  0  0  0  4           0  0  0
    5.1937    2.1695    3.6724 C   0  0  0  0  0  4           0  0  0
   -1.9459   -0.0149    3.4806 C   0  0  0  0  0  4           0  0  0
    6.5972    1.9127    5.6675 C   0  0  0  0  0  4           0  0  0
    5.2214   -0.0209    4.9303 C   0  0  0  0  0  4           0  0  0
   -2.8472   -0.0218    4.7137 C   0  0  2  0  0  4           0  0  0
   -3.7490   -1.2639    4.7080 C   0  0  0  0  0  4           0  0  0
   -3.6850    1.2653    4.8005 C   0  0  0  0  0  4           0  0  0
   -4.7064   -1.2785    5.8967 C   0  0  0  0  0  4           0  0  0
   -4.6469    1.2395    5.9864 C   0  0  0  0  0  4           0  0  0
   -5.5344   -0.0001    5.9651 C   0  0  0  0  0  4           0  0  0
    5.9128    2.5871    6.8445 C   0  0  0  0  0  4           0  0  0
    6.1291   -1.0060    4.2133 C   0  0  0  0  0  4           0  0  0
  1  6  2  0     0  0
  2 10  1  0     0  0
  2 21  1  0     0  0
  3 20  2  0     0  0
  4 10  2  0     0  0
  4 11  1  0     0  0
  5 11  2  0     0  0
  5 12  1  0     0  0
  6 13  1  0     0  0
  7 11  1  0     0  0
  7 14  1  0     0  0
  8 12  1  0     0  0
  9 20  1  0     0  0
  9 22  1  0     0  0
  9 23  1  0     0  0
 10 13  1  0     0  0
 12 13  2  0     0  0
 14 16  2  0     0  0
 14 17  1  0     0  0
 15 18  2  0     0  0
 15 19  1  0     0  0
 15 20  1  0     0  0
 16 18  1  0     0  0
 17 19  2  0     0  0
 21 24  1  0     0  0
 22 30  1  0     0  0
 23 31  1  0     0  0
 24 25  1  0     0  0
 24 26  1  0     0  0
 25 27  1  0     0  0
 26 28  1  0     0  0
 27 29  1  0     0  0
 28 29  1  0     0  0
M  END
> <Compound >
6

> <standard_type>
pIC50

> <# Confs.>
25

> <canonical_smiles>
NC1=C(N=O)C(OCC2CCCCC2)=NC(NC3=CC=C(C(N(CC)CC)=O)C=C3)=N1

> <standard_relation>
=

> <predicted_activity_value>
6.604673606930649

> <actual_activity_value>
6.698970004336019

> <Publication ID>
nan

> <standard_units>
nM

> hash
11749655514688934920

$$$$
6_
XXILIB    08252103513D 0   0.00000     0.00000

 31 33  0     1  0            999 V2000
   -4.5994    0.5941   -1.0776 O   0  0  0  0  0  2           0  0  0
   -2.7474   -0.0001    2.2993 O   0  0  0  0  0  2           0  0  0
    5.1203    1.0284    5.0680 O   0  0  0  0  0  2           0  0  0
   -0.6706    0.0000    1.1725 N   0  0  0  0  0  3           0  0  0
   -0.6200   -0.0021   -1.2031 N   0  0  0  0  0  3           0  0  0
   -4.1112    0.0204   -0.0969 N   0  0  0  0  0  3           0  0  0
    1.4054    0.0000   -0.0000 N   0  0  0  0  0  3           0  0  0
   -2.5845    0.0178   -2.4998 N   0  0  0  0  0  3           0  0  0
    6.0788   -0.9731    4.3974 N   0  0  2  0  0  3           0  0  0
   -2.0216    0.0072    1.1181 C   0  0  0  0  0  4           0  0  0
    0.0000    0.0000    0.0000 C   0  0  0  0  0  4           0  0  0
   -1.9763   -0.0118   -1.2451 C   0  0  0  0  0  4           0  0  0
   -2.7356    0.0183   -0.0756 C   0  0  0  0  0  4           0  0  0
    2.3178    0.0000    1.0577 C   0  0  0  0  0  4           0  0  0
    4.2122    0.0614    3.1580 C   0  0  0  0  0  4           0  0  0
    3.5687    0.6114    0.8867 C   0  0  0  0  0  4           0  0  0
    2.0334   -0.5820    2.3009 C   0  0  0  0  0  4           0  0  0
    4.5093    0.6433    1.9220 C   0  0  0  0  0  4           0  0  0
    2.9686   -0.5526    3.3410 C   0  0  0  0  0  4           0  0  0
    5.1692    0.0782    4.2863 C   0  0  0  0  0  4           0  0  0
   -2.0912    0.6373    3.3953 C   0  0  0  0  0  4           0  0  0
    7.0327   -0.9693    5.4888 C   0  0  0  0  0  4           0  0  0
    6.1507   -2.0970    3.4577 C   0  0  0  0  0  4           0  0  0
   -3.1315    1.2350    4.3406 C   0  0  2  0  0  4           0  0  0
   -3.9894    2.2718    3.6023 C   0  0  0  0  0  4           0  0  0
   -2.4676    1.8545    5.5822 C   0  0  0  0  0  4           0  0  0
   -5.0053    2.9346    4.5289 C   0  0  0  0  0  4           0  0  0
   -3.4889    2.5236    6.4996 C   0  0  0  0  0  4           0  0  0
   -4.3318    3.5499    5.7505 C   0  0  0  0  0  4           0  0  0
    8.3237   -0.2604    5.1156 C   0  0  0  0  0  4           0  0  0
    5.2551   -3.2501    3.8780 C   0  0  0  0  0  4           0  0  0
  1  6  2  0     0  0
  2 10  1  0     0  0
  2 21  1  0     0  0
  3 20  2  0     0  0
  4 10  2  0     0  0
  4 11  1  0     0  0
  5 11  2  0     0  0
  5 12  1  0     0  0
  6 13  1  0     0  0
  7 11  1  0     0  0
  7 14  1  0     0  0
  8 12  1  0     0  0
  9 20  1  0     0  0
  9 22  1  0     0  0
  9 23  1  0     0  0
 10 13  1  0     0  0
 12 13  2  0     0  0
 14 16  2  0     0  0
 14 17  1  0     0  0
 15 18  2  0     0  0
 15 19  1  0     0  0
 15 20  1  0     0  0
 16 18  1  0     0  0
 17 19  2  0     0  0
 21 24  1  0     0  0
 22 30  1  0     0  0
 23 31  1  0     0  0
 24 25  1  0     0  0
 24 26  1  0     0  0
 25 27  1  0     0  0
 26 28  1  0     0  0
 27 29  1  0     0  0
 28 29  1  0     0  0
M  END
> <Compound >
6

> <standard_type>
pIC50

> <# Confs.>
25

> <canonical_smiles>
NC1=C(N=O)C(OCC2CCCCC2)=NC(NC3=CC=C(C(N(CC)CC)=O)C=C3)=N1

> <standard_relation>
=

> <predicted_activity_value>
6.604673606930649

> <actual_activity_value>
6.698970004336019

> <Publication ID>
nan

> <standard_units>
nM

> hash
11749655514688934920

$$$$
7_
XXILIB    08252103513D 0   0.00000     0.00000

 26 28  0     1  0            999 V2000
   -3.8480    1.3912    7.1546 S   0  0  0  0  0  2           0  0  0
   -0.5282    0.5741   -3.3495 O   0  0  0  0  0  2           0  0  0
    1.3872    0.0000    0.0000 O   0  0  0  0  0  2           0  0  0
   -0.6613   -0.0000    1.1796 N   0  0  0  0  0  3           0  0  0
   -2.7104    0.0132   -0.0234 N   0  0  0  0  0  3           0  0  0
    0.0579    0.0086   -2.4187 N   0  0  0  0  0  3           0  0  0
   -2.7474   -0.0055    2.3276 N   0  0  0  0  0  3           0  0  0
   -2.7860    0.0173   -2.3759 N   0  0  0  0  0  3           0  0  0
   -2.7520    0.6174    5.9913 C   0  0  0  0  0  4           0  0  0
    0.0000    0.0000    0.0000 C   0  0  0  0  0  4           0  0  0
   -2.0113    0.0020    1.1355 C   0  0  0  0  0  4           0  0  0
   -2.0357    0.0341   -1.2005 C   0  0  0  0  0  4           0  0  0
   -0.6421    0.0020   -1.2343 C   0  0  0  0  0  4           0  0  0
   -2.3253   -0.0155    3.6594 C   0  0  0  0  0  4           0  0  0
   -3.1308    0.5925    4.6394 C   0  0  0  0  0  4           0  0  0
   -1.5528    0.0064    6.3682 C   0  0  0  0  0  4           0  0  0
   -1.1249   -0.6127    4.0658 C   0  0  0  0  0  4           0  0  0
   -0.7437   -0.6020    5.4087 C   0  0  0  0  0  4           0  0  0
   -2.8064    2.7115    7.8372 C   0  0  0  0  0  4           0  0  0
    1.9744    0.0000    1.3013 C   0  0  0  0  0  4           0  0  0
    3.4972    0.0000    1.1785 C   0  0  2  0  0  4           0  0  0
    4.1460   -0.0000    2.5696 C   0  0  0  0  0  4           0  0  0
    3.9909    1.1947    0.3444 C   0  0  0  0  0  4           0  0  0
    5.6693    0.0504    2.4863 C   0  0  0  0  0  4           0  0  0
    5.5156    1.2455    0.2710 C   0  0  0  0  0  4           0  0  0
    6.1486    1.2378    1.6584 C   0  0  0  0  0  4           0  0  0
  1  9  1  0     0  0
  1 19  1  0     0  0
  2  6  2  0     0  0
  3 10  1  0     0  0
  3 20  1  0     0  0
  4 10  2  0     0  0
  4 11  1  0     0  0
  5 11  2  0     0  0
  5 12  1  0     0  0
  6 13  1  0     0  0
  7 11  1  0     0  0
  7 14  1  0     0  0
  8 12  1  0     0  0
  9 15  2  0     0  0
  9 16  1  0     0  0
 10 13  1  0     0  0
 12 13  2  0     0  0
 14 15  1  0     0  0
 14 17  2  0     0  0
 16 18  2  0     0  0
 17 18  1  0     0  0
 20 21  1  0     0  0
 21 22  1  0     0  0
 21 23  1  0     0  0
 22 24  1  0     0  0
 23 25  1  0     0  0
 24 26  1  0     0  0
 25 26  1  0     0  0
M  END
> <Compound >
7

> <standard_type>
pIC50

> <# Confs.>
25

> <canonical_smiles>
NC1=C(N=O)C(OCC2CCCCC2)=NC(NC3=CC=CC(SC)=C3)=N1

> <standard_relation>
=

> <predicted_activity_value>
5.9899545873639015

> <actual_activity_value>
6.3979400086720375

> <Publication ID>
nan

> <standard_units>
nM

> hash
10733327821956238231

$$$$
7_
XXILIB    08252103513D 0   0.00000     0.00000

 26 28  0     1  0            999 V2000
   -3.8371   -1.4938    7.1297 S   0  0  0  0  0  2           0  0  0
   -0.5282    0.5741   -3.3495 O   0  0  0  0  0  2           0  0  0
    1.3872    0.0000    0.0000 O   0  0  0  0  0  2           0  0  0
   -0.6613   -0.0000    1.1796 N   0  0  0  0  0  3           0  0  0
   -2.7104    0.0132   -0.0234 N   0  0  0  0  0  3           0  0  0
    0.0579    0.0086   -2.4187 N   0  0  0  0  0  3           0  0  0
   -2.7474   -0.0055    2.3276 N   0  0  0  0  0  3           0  0  0
   -2.7860    0.0173   -2.3759 N   0  0  0  0  0  3           0  0  0
   -2.7598   -0.6688    5.9842 C   0  0  0  0  0  4           0  0  0
    0.0000    0.0000    0.0000 C   0  0  0  0  0  4           0  0  0
   -2.0113    0.0020    1.1355 C   0  0  0  0  0  4           0  0  0
   -2.0357    0.0341   -1.2005 C   0  0  0  0  0  4           0  0  0
   -0.6421    0.0020   -1.2343 C   0  0  0  0  0  4           0  0  0
   -2.3253   -0.0155    3.6594 C   0  0  0  0  0  4           0  0  0
   -3.1323   -0.6352    4.6307 C   0  0  0  0  0  4           0  0  0
   -1.5484   -0.0855    6.3662 C   0  0  0  0  0  4           0  0  0
   -1.1206    0.5679    4.0732 C   0  0  0  0  0  4           0  0  0
   -0.7363    0.5317    5.4148 C   0  0  0  0  0  4           0  0  0
   -2.7584   -2.7913    7.7982 C   0  0  0  0  0  4           0  0  0
    1.9744    0.0000    1.3013 C   0  0  0  0  0  4           0  0  0
    3.4972    0.0000    1.1785 C   0  0  2  0  0  4           0  0  0
    4.1460   -0.0000    2.5696 C   0  0  0  0  0  4           0  0  0
    3.9909    1.1947    0.3444 C   0  0  0  0  0  4           0  0  0
    5.6693    0.0504    2.4863 C   0  0  0  0  0  4           0  0  0
    5.5156    1.2455    0.2710 C   0  0  0  0  0  4           0  0  0
    6.1486    1.2378    1.6584 C   0  0  0  0  0  4           0  0  0
  1  9  1  0     0  0
  1 19  1  0     0  0
  2  6  2  0     0  0
  3 10  1  0     0  0
  3 20  1  0     0  0
  4 10  2  0     0  0
  4 11  1  0     0  0
  5 11  2  0     0  0
  5 12  1  0     0  0
  6 13  1  0     0  0
  7 11  1  0     0  0
  7 14  1  0     0  0
  8 12  1  0     0  0
  9 15  2  0     0  0
  9 16  1  0     0  0
 10 13  1  0     0  0
 12 13  2  0     0  0
 14 15  1  0     0  0
 14 17  2  0     0  0
 16 18  2  0     0  0
 17 18  1  0     0  0
 20 21  1  0     0  0
 21 22  1  0     0  0
 21 23  1  0     0  0
 22 24  1  0     0  0
 23 25  1  0     0  0
 24 26  1  0     0  0
 25 26  1  0     0  0
M  END
> <Compound >
7

> <standard_type>
pIC50

> <# Confs.>
25

> <canonical_smiles>
NC1=C(N=O)C(OCC2CCCCC2)=NC(NC3=CC=CC(SC)=C3)=N1

> <standard_relation>
=

> <predicted_activity_value>
5.9899545873639015

> <actual_activity_value>
6.3979400086720375

> <Publication ID>
nan

> <standard_units>
nM

> hash
10733327821956238231

$$$$
7_
XXILIB    08252103513D 0   0.00000     0.00000

 26 28  0     1  0            999 V2000
   -3.8480    1.3912    7.1546 S   0  0  0  0  0  2           0  0  0
   -0.5282    0.5741   -3.3495 O   0  0  0  0  0  2           0  0  0
    1.3872    0.0000    0.0000 O   0  0  0  0  0  2           0  0  0
   -0.6613   -0.0000    1.1796 N   0  0  0  0  0  3           0  0  0
   -2.7104    0.0132   -0.0234 N   0  0  0  0  0  3           0  0  0
    0.0579    0.0086   -2.4187 N   0  0  0  0  0  3           0  0  0
   -2.7474   -0.0055    2.3276 N   0  0  0  0  0  3           0  0  0
   -2.7860    0.0173   -2.3759 N   0  0  0  0  0  3           0  0  0
   -2.7520    0.6174    5.9913 C   0  0  0  0  0  4           0  0  0
    0.0000    0.0000    0.0000 C   0  0  0  0  0  4           0  0  0
   -2.0113    0.0020    1.1355 C   0  0  0  0  0  4           0  0  0
   -2.0357    0.0341   -1.2005 C   0  0  0  0  0  4           0  0  0
   -0.6421    0.0020   -1.2343 C   0  0  0  0  0  4           0  0  0
   -2.3253   -0.0155    3.6594 C   0  0  0  0  0  4           0  0  0
   -3.1308    0.5925    4.6394 C   0  0  0  0  0  4           0  0  0
   -1.5528    0.0064    6.3682 C   0  0  0  0  0  4           0  0  0
   -1.1249   -0.6127    4.0658 C   0  0  0  0  0  4           0  0  0
   -0.7437   -0.6020    5.4087 C   0  0  0  0  0  4           0  0  0
   -2.8064    2.7115    7.8372 C   0  0  0  0  0  4           0  0  0
    1.9744    0.0000    1.3013 C   0  0  0  0  0  4           0  0  0
    3.4972    0.0000    1.1785 C   0  0  2  0  0  4           0  0  0
    3.9725   -1.2460    0.4184 C   0  0  0  0  0  4           0  0  0
    4.1696    0.0883    2.5594 C   0  0  0  0  0  4           0  0  0
    5.4945   -1.3054    0.3197 C   0  0  0  0  0  4           0  0  0
    5.6918    0.0201    2.4559 C   0  0  0  0  0  4           0  0  0
    6.1514   -1.2178    1.6930 C   0  0  0  0  0  4           0  0  0
  1  9  1  0     0  0
  1 19  1  0     0  0
  2  6  2  0     0  0
  3 10  1  0     0  0
  3 20  1  0     0  0
  4 10  2  0     0  0
  4 11  1  0     0  0
  5 11  2  0     0  0
  5 12  1  0     0  0
  6 13  1  0     0  0
  7 11  1  0     0  0
  7 14  1  0     0  0
  8 12  1  0     0  0
  9 15  2  0     0  0
  9 16  1  0     0  0
 10 13  1  0     0  0
 12 13  2  0     0  0
 14 15  1  0     0  0
 14 17  2  0     0  0
 16 18  2  0     0  0
 17 18  1  0     0  0
 20 21  1  0     0  0
 21 22  1  0     0  0
 21 23  1  0     0  0
 22 24  1  0     0  0
 23 25  1  0     0  0
 24 26  1  0     0  0
 25 26  1  0     0  0
M  END
> <Compound >
7

> <standard_type>
pIC50

> <# Confs.>
25

> <canonical_smiles>
NC1=C(N=O)C(OCC2CCCCC2)=NC(NC3=CC=CC(SC)=C3)=N1

> <standard_relation>
=

> <predicted_activity_value>
5.9899545873639015

> <actual_activity_value>
6.3979400086720375

> <Publication ID>
nan

> <standard_units>
nM

> hash
10733327821956238231

$$$$
7_
XXILIB    08252103513D 0   0.00000     0.00000

 26 28  0     1  0            999 V2000
   -3.8371   -1.4938    7.1297 S   0  0  0  0  0  2           0  0  0
   -0.5282    0.5741   -3.3495 O   0  0  0  0  0  2           0  0  0
    1.3872    0.0000    0.0000 O   0  0  0  0  0  2           0  0  0
   -0.6613   -0.0000    1.1796 N   0  0  0  0  0  3           0  0  0
   -2.7104    0.0132   -0.0234 N   0  0  0  0  0  3           0  0  0
    0.0579    0.0086   -2.4187 N   0  0  0  0  0  3           0  0  0
   -2.7474   -0.0055    2.3276 N   0  0  0  0  0  3           0  0  0
   -2.7860    0.0173   -2.3759 N   0  0  0  0  0  3           0  0  0
   -2.7598   -0.6688    5.9842 C   0  0  0  0  0  4           0  0  0
    0.0000    0.0000    0.0000 C   0  0  0  0  0  4           0  0  0
   -2.0113    0.0020    1.1355 C   0  0  0  0  0  4           0  0  0
   -2.0357    0.0341   -1.2005 C   0  0  0  0  0  4           0  0  0
   -0.6421    0.0020   -1.2343 C   0  0  0  0  0  4           0  0  0
   -2.3253   -0.0155    3.6594 C   0  0  0  0  0  4           0  0  0
   -3.1323   -0.6352    4.6307 C   0  0  0  0  0  4           0  0  0
   -1.5484   -0.0855    6.3662 C   0  0  0  0  0  4           0  0  0
   -1.1206    0.5679    4.0732 C   0  0  0  0  0  4           0  0  0
   -0.7363    0.5317    5.4148 C   0  0  0  0  0  4           0  0  0
   -2.7584   -2.7913    7.7982 C   0  0  0  0  0  4           0  0  0
    1.9744    0.0000    1.3013 C   0  0  0  0  0  4           0  0  0
    3.4972    0.0000    1.1785 C   0  0  2  0  0  4           0  0  0
    3.9725   -1.2460    0.4184 C   0  0  0  0  0  4           0  0  0
    4.1696    0.0883    2.5594 C   0  0  0  0  0  4           0  0  0
    5.4945   -1.3054    0.3197 C   0  0  0  0  0  4           0  0  0
    5.6918    0.0201    2.4559 C   0  0  0  0  0  4           0  0  0
    6.1514   -1.2178    1.6930 C   0  0  0  0  0  4           0  0  0
  1  9  1  0     0  0
  1 19  1  0     0  0
  2  6  2  0     0  0
  3 10  1  0     0  0
  3 20  1  0     0  0
  4 10  2  0     0  0
  4 11  1  0     0  0
  5 11  2  0     0  0
  5 12  1  0     0  0
  6 13  1  0     0  0
  7 11  1  0     0  0
  7 14  1  0     0  0
  8 12  1  0     0  0
  9 15  2  0     0  0
  9 16  1  0     0  0
 10 13  1  0     0  0
 12 13  2  0     0  0
 14 15  1  0     0  0
 14 17  2  0     0  0
 16 18  2  0     0  0
 17 18  1  0     0  0
 20 21  1  0     0  0
 21 22  1  0     0  0
 21 23  1  0     0  0
 22 24  1  0     0  0
 23 25  1  0     0  0
 24 26  1  0     0  0
 25 26  1  0     0  0
M  END
> <Compound >
7

> <standard_type>
pIC50

> <# Confs.>
25

> <canonical_smiles>
NC1=C(N=O)C(OCC2CCCCC2)=NC(NC3=CC=CC(SC)=C3)=N1

> <standard_relation>
=

> <predicted_activity_value>
5.9899545873639015

> <actual_activity_value>
6.3979400086720375

> <Publication ID>
nan

> <standard_units>
nM

> hash
10733327821956238231

$$$$
7_
XXILIB    08252103513D 0   0.00000     0.00000

 26 28  0     1  0            999 V2000
   -3.8371   -1.4938    7.1297 S   0  0  0  0  0  2           0  0  0
   -0.5282    0.5741   -3.3495 O   0  0  0  0  0  2           0  0  0
    1.3872    0.0000    0.0000 O   0  0  0  0  0  2           0  0  0
   -0.6613   -0.0000    1.1796 N   0  0  0  0  0  3           0  0  0
   -2.7104    0.0132   -0.0234 N   0  0  0  0  0  3           0  0  0
    0.0579    0.0086   -2.4187 N   0  0  0  0  0  3           0  0  0
   -2.7474   -0.0055    2.3276 N   0  0  0  0  0  3           0  0  0
   -2.7860    0.0173   -2.3759 N   0  0  0  0  0  3           0  0  0
   -2.7598   -0.6688    5.9842 C   0  0  0  0  0  4           0  0  0
    0.0000    0.0000    0.0000 C   0  0  0  0  0  4           0  0  0
   -2.0113    0.0020    1.1355 C   0  0  0  0  0  4           0  0  0
   -2.0357    0.0341   -1.2005 C   0  0  0  0  0  4           0  0  0
   -0.6421    0.0020   -1.2343 C   0  0  0  0  0  4           0  0  0
   -2.3253   -0.0155    3.6594 C   0  0  0  0  0  4           0  0  0
   -3.1323   -0.6352    4.6307 C   0  0  0  0  0  4           0  0  0
   -1.5484   -0.0855    6.3662 C   0  0  0  0  0  4           0  0  0
   -1.1206    0.5679    4.0732 C   0  0  0  0  0  4           0  0  0
   -0.7363    0.5317    5.4148 C   0  0  0  0  0  4           0  0  0
   -4.2660   -0.1557    8.2785 C   0  0  0  0  0  4           0  0  0
    1.9744    0.0000    1.3013 C   0  0  0  0  0  4           0  0  0
    3.4972    0.0000    1.1785 C   0  0  2  0  0  4           0  0  0
    4.1460   -0.0000    2.5696 C   0  0  0  0  0  4           0  0  0
    3.9909    1.1947    0.3444 C   0  0  0  0  0  4           0  0  0
    5.6693    0.0504    2.4863 C   0  0  0  0  0  4           0  0  0
    5.5156    1.2455    0.2710 C   0  0  0  0  0  4           0  0  0
    6.1486    1.2378    1.6584 C   0  0  0  0  0  4           0  0  0
  1  9  1  0     0  0
  1 19  1  0     0  0
  2  6  2  0     0  0
  3 10  1  0     0  0
  3 20  1  0     0  0
  4 10  2  0     0  0
  4 11  1  0     0  0
  5 11  2  0     0  0
  5 12  1  0     0  0
  6 13  1  0     0  0
  7 11  1  0     0  0
  7 14  1  0     0  0
  8 12  1  0     0  0
  9 15  2  0     0  0
  9 16  1  0     0  0
 10 13  1  0     0  0
 12 13  2  0     0  0
 14 15  1  0     0  0
 14 17  2  0     0  0
 16 18  2  0     0  0
 17 18  1  0     0  0
 20 21  1  0     0  0
 21 22  1  0     0  0
 21 23  1  0     0  0
 22 24  1  0     0  0
 23 25  1  0     0  0
 24 26  1  0     0  0
 25 26  1  0     0  0
M  END
> <Compound >
7

> <standard_type>
pIC50

> <# Confs.>
25

> <canonical_smiles>
NC1=C(N=O)C(OCC2CCCCC2)=NC(NC3=CC=CC(SC)=C3)=N1

> <standard_relation>
=

> <predicted_activity_value>
5.9899545873639015

> <actual_activity_value>
6.3979400086720375

> <Publication ID>
nan

> <standard_units>
nM

> hash
10733327821956238231

$$$$
7_
XXILIB    08252103513D 0   0.00000     0.00000

 26 28  0     1  0            999 V2000
   -3.8371   -1.4938    7.1297 S   0  0  0  0  0  2           0  0  0
   -0.5282    0.5741   -3.3495 O   0  0  0  0  0  2           0  0  0
    1.3872    0.0000    0.0000 O   0  0  0  0  0  2           0  0  0
   -0.6613   -0.0000    1.1796 N   0  0  0  0  0  3           0  0  0
   -2.7104    0.0132   -0.0234 N   0  0  0  0  0  3           0  0  0
    0.0579    0.0086   -2.4187 N   0  0  0  0  0  3           0  0  0
   -2.7474   -0.0055    2.3276 N   0  0  0  0  0  3           0  0  0
   -2.7860    0.0173   -2.3759 N   0  0  0  0  0  3           0  0  0
   -2.7598   -0.6688    5.9842 C   0  0  0  0  0  4           0  0  0
    0.0000    0.0000    0.0000 C   0  0  0  0  0  4           0  0  0
   -2.0113    0.0020    1.1355 C   0  0  0  0  0  4           0  0  0
   -2.0357    0.0341   -1.2005 C   0  0  0  0  0  4           0  0  0
   -0.6421    0.0020   -1.2343 C   0  0  0  0  0  4           0  0  0
   -2.3253   -0.0155    3.6594 C   0  0  0  0  0  4           0  0  0
   -3.1323   -0.6352    4.6307 C   0  0  0  0  0  4           0  0  0
   -1.5484   -0.0855    6.3662 C   0  0  0  0  0  4           0  0  0
   -1.1206    0.5679    4.0732 C   0  0  0  0  0  4           0  0  0
   -0.7363    0.5317    5.4148 C   0  0  0  0  0  4           0  0  0
   -4.2660   -0.1557    8.2785 C   0  0  0  0  0  4           0  0  0
    1.9744    0.0000    1.3013 C   0  0  0  0  0  4           0  0  0
    3.4972    0.0000    1.1785 C   0  0  2  0  0  4           0  0  0
    3.9725   -1.2460    0.4184 C   0  0  0  0  0  4           0  0  0
    4.1696    0.0883    2.5594 C   0  0  0  0  0  4           0  0  0
    5.4945   -1.3054    0.3197 C   0  0  0  0  0  4           0  0  0
    5.6918    0.0201    2.4559 C   0  0  0  0  0  4           0  0  0
    6.1514   -1.2178    1.6930 C   0  0  0  0  0  4           0  0  0
  1  9  1  0     0  0
  1 19  1  0     0  0
  2  6  2  0     0  0
  3 10  1  0     0  0
  3 20  1  0     0  0
  4 10  2  0     0  0
  4 11  1  0     0  0
  5 11  2  0     0  0
  5 12  1  0     0  0
  6 13  1  0     0  0
  7 11  1  0     0  0
  7 14  1  0     0  0
  8 12  1  0     0  0
  9 15  2  0     0  0
  9 16  1  0     0  0
 10 13  1  0     0  0
 12 13  2  0     0  0
 14 15  1  0     0  0
 14 17  2  0     0  0
 16 18  2  0     0  0
 17 18  1  0     0  0
 20 21  1  0     0  0
 21 22  1  0     0  0
 21 23  1  0     0  0
 22 24  1  0     0  0
 23 25  1  0     0  0
 24 26  1  0     0  0
 25 26  1  0     0  0
M  END
> <Compound >
7

> <standard_type>
pIC50

> <# Confs.>
25

> <canonical_smiles>
NC1=C(N=O)C(OCC2CCCCC2)=NC(NC3=CC=CC(SC)=C3)=N1

> <standard_relation>
=

> <predicted_activity_value>
5.9899545873639015

> <actual_activity_value>
6.3979400086720375

> <Publication ID>
nan

> <standard_units>
nM

> hash
10733327821956238231

$$$$
7_
XXILIB    08252103513D 0   0.00000     0.00000

 26 28  0     1  0            999 V2000
   -3.8480    1.3912    7.1546 S   0  0  0  0  0  2           0  0  0
   -0.5282    0.5741   -3.3495 O   0  0  0  0  0  2           0  0  0
    1.3872    0.0000    0.0000 O   0  0  0  0  0  2           0  0  0
   -0.6613   -0.0000    1.1796 N   0  0  0  0  0  3           0  0  0
   -2.7104    0.0132   -0.0234 N   0  0  0  0  0  3           0  0  0
    0.0579    0.0086   -2.4187 N   0  0  0  0  0  3           0  0  0
   -2.7474   -0.0055    2.3276 N   0  0  0  0  0  3           0  0  0
   -2.7860    0.0173   -2.3759 N   0  0  0  0  0  3           0  0  0
   -2.7520    0.6174    5.9913 C   0  0  0  0  0  4           0  0  0
    0.0000    0.0000    0.0000 C   0  0  0  0  0  4           0  0  0
   -2.0113    0.0020    1.1355 C   0  0  0  0  0  4           0  0  0
   -2.0357    0.0341   -1.2005 C   0  0  0  0  0  4           0  0  0
   -0.6421    0.0020   -1.2343 C   0  0  0  0  0  4           0  0  0
   -2.3253   -0.0155    3.6594 C   0  0  0  0  0  4           0  0  0
   -3.1308    0.5925    4.6394 C   0  0  0  0  0  4           0  0  0
   -1.5528    0.0064    6.3682 C   0  0  0  0  0  4           0  0  0
   -1.1249   -0.6127    4.0658 C   0  0  0  0  0  4           0  0  0
   -0.7437   -0.6020    5.4087 C   0  0  0  0  0  4           0  0  0
   -4.2288    0.0235    8.2852 C   0  0  0  0  0  4           0  0  0
    1.9744    0.0000    1.3013 C   0  0  0  0  0  4           0  0  0
    3.4972    0.0000    1.1785 C   0  0  2  0  0  4           0  0  0
    4.1460   -0.0000    2.5696 C   0  0  0  0  0  4           0  0  0
    3.9909    1.1947    0.3444 C   0  0  0  0  0  4           0  0  0
    5.6693    0.0504    2.4863 C   0  0  0  0  0  4           0  0  0
    5.5156    1.2455    0.2710 C   0  0  0  0  0  4           0  0  0
    6.1486    1.2378    1.6584 C   0  0  0  0  0  4           0  0  0
  1  9  1  0     0  0
  1 19  1  0     0  0
  2  6  2  0     0  0
  3 10  1  0     0  0
  3 20  1  0     0  0
  4 10  2  0     0  0
  4 11  1  0     0  0
  5 11  2  0     0  0
  5 12  1  0     0  0
  6 13  1  0     0  0
  7 11  1  0     0  0
  7 14  1  0     0  0
  8 12  1  0     0  0
  9 15  2  0     0  0
  9 16  1  0     0  0
 10 13  1  0     0  0
 12 13  2  0     0  0
 14 15  1  0     0  0
 14 17  2  0     0  0
 16 18  2  0     0  0
 17 18  1  0     0  0
 20 21  1  0     0  0
 21 22  1  0     0  0
 21 23  1  0     0  0
 22 24  1  0     0  0
 23 25  1  0     0  0
 24 26  1  0     0  0
 25 26  1  0     0  0
M  END
> <Compound >
7

> <standard_type>
pIC50

> <# Confs.>
25

> <canonical_smiles>
NC1=C(N=O)C(OCC2CCCCC2)=NC(NC3=CC=CC(SC)=C3)=N1

> <standard_relation>
=

> <predicted_activity_value>
5.9899545873639015

> <actual_activity_value>
6.3979400086720375

> <Publication ID>
nan

> <standard_units>
nM

> hash
10733327821956238231

$$$$
7_
XXILIB    08252103513D 0   0.00000     0.00000

 26 28  0     1  0            999 V2000
   -3.8480    1.3912    7.1546 S   0  0  0  0  0  2           0  0  0
   -0.5282    0.5741   -3.3495 O   0  0  0  0  0  2           0  0  0
    1.3872    0.0000    0.0000 O   0  0  0  0  0  2           0  0  0
   -0.6613   -0.0000    1.1796 N   0  0  0  0  0  3           0  0  0
   -2.7104    0.0132   -0.0234 N   0  0  0  0  0  3           0  0  0
    0.0579    0.0086   -2.4187 N   0  0  0  0  0  3           0  0  0
   -2.7474   -0.0055    2.3276 N   0  0  0  0  0  3           0  0  0
   -2.7860    0.0173   -2.3759 N   0  0  0  0  0  3           0  0  0
   -2.7520    0.6174    5.9913 C   0  0  0  0  0  4           0  0  0
    0.0000    0.0000    0.0000 C   0  0  0  0  0  4           0  0  0
   -2.0113    0.0020    1.1355 C   0  0  0  0  0  4           0  0  0
   -2.0357    0.0341   -1.2005 C   0  0  0  0  0  4           0  0  0
   -0.6421    0.0020   -1.2343 C   0  0  0  0  0  4           0  0  0
   -2.3253   -0.0155    3.6594 C   0  0  0  0  0  4           0  0  0
   -3.1308    0.5925    4.6394 C   0  0  0  0  0  4           0  0  0
   -1.5528    0.0064    6.3682 C   0  0  0  0  0  4           0  0  0
   -1.1249   -0.6127    4.0658 C   0  0  0  0  0  4           0  0  0
   -0.7437   -0.6020    5.4087 C   0  0  0  0  0  4           0  0  0
   -4.2288    0.0235    8.2852 C   0  0  0  0  0  4           0  0  0
    1.9744    0.0000    1.3013 C   0  0  0  0  0  4           0  0  0
    3.4972    0.0000    1.1785 C   0  0  2  0  0  4           0  0  0
    3.9725   -1.2460    0.4184 C   0  0  0  0  0  4           0  0  0
    4.1696    0.0883    2.5594 C   0  0  0  0  0  4           0  0  0
    5.4945   -1.3054    0.3197 C   0  0  0  0  0  4           0  0  0
    5.6918    0.0201    2.4559 C   0  0  0  0  0  4           0  0  0
    6.1514   -1.2178    1.6930 C   0  0  0  0  0  4           0  0  0
  1  9  1  0     0  0
  1 19  1  0     0  0
  2  6  2  0     0  0
  3 10  1  0     0  0
  3 20  1  0     0  0
  4 10  2  0     0  0
  4 11  1  0     0  0
  5 11  2  0     0  0
  5 12  1  0     0  0
  6 13  1  0     0  0
  7 11  1  0     0  0
  7 14  1  0     0  0
  8 12  1  0     0  0
  9 15  2  0     0  0
  9 16  1  0     0  0
 10 13  1  0     0  0
 12 13  2  0     0  0
 14 15  1  0     0  0
 14 17  2  0     0  0
 16 18  2  0     0  0
 17 18  1  0     0  0
 20 21  1  0     0  0
 21 22  1  0     0  0
 21 23  1  0     0  0
 22 24  1  0     0  0
 23 25  1  0     0  0
 24 26  1  0     0  0
 25 26  1  0     0  0
M  END
> <Compound >
7

> <standard_type>
pIC50

> <# Confs.>
25

> <canonical_smiles>
NC1=C(N=O)C(OCC2CCCCC2)=NC(NC3=CC=CC(SC)=C3)=N1

> <standard_relation>
=

> <predicted_activity_value>
5.9899545873639015

> <actual_activity_value>
6.3979400086720375

> <Publication ID>
nan

> <standard_units>
nM

> hash
10733327821956238231

$$$$
7_
XXILIB    08252103513D 0   0.00000     0.00000

 26 28  0     1  0            999 V2000
   -3.8480    1.3912    7.1546 S   0  0  0  0  0  2           0  0  0
   -0.5282    0.5741   -3.3495 O   0  0  0  0  0  2           0  0  0
    1.3872    0.0000    0.0000 O   0  0  0  0  0  2           0  0  0
   -0.6613   -0.0000    1.1796 N   0  0  0  0  0  3           0  0  0
   -2.7104    0.0132   -0.0234 N   0  0  0  0  0  3           0  0  0
    0.0579    0.0086   -2.4187 N   0  0  0  0  0  3           0  0  0
   -2.7474   -0.0055    2.3276 N   0  0  0  0  0  3           0  0  0
   -2.7860    0.0173   -2.3759 N   0  0  0  0  0  3           0  0  0
   -2.7520    0.6174    5.9913 C   0  0  0  0  0  4           0  0  0
    0.0000    0.0000    0.0000 C   0  0  0  0  0  4           0  0  0
   -2.0113    0.0020    1.1355 C   0  0  0  0  0  4           0  0  0
   -2.0357    0.0341   -1.2005 C   0  0  0  0  0  4           0  0  0
   -0.6421    0.0020   -1.2343 C   0  0  0  0  0  4           0  0  0
   -2.3253   -0.0155    3.6594 C   0  0  0  0  0  4           0  0  0
   -3.1308    0.5925    4.6394 C   0  0  0  0  0  4           0  0  0
   -1.5528    0.0064    6.3682 C   0  0  0  0  0  4           0  0  0
   -1.1249   -0.6127    4.0658 C   0  0  0  0  0  4           0  0  0
   -0.7437   -0.6020    5.4087 C   0  0  0  0  0  4           0  0  0
   -2.8064    2.7115    7.8372 C   0  0  0  0  0  4           0  0  0
    1.9744    0.0000    1.3013 C   0  0  0  0  0  4           0  0  0
    3.4972    0.0000    1.1785 C   0  0  2  0  0  4           0  0  0
    3.9725    1.2460    0.4184 C   0  0  0  0  0  4           0  0  0
    4.0032   -1.2830    0.4968 C   0  0  0  0  0  4           0  0  0
    5.4875    1.2550    0.2326 C   0  0  0  0  0  4           0  0  0
    5.5183   -1.2655    0.3057 C   0  0  0  0  0  4           0  0  0
    5.9790   -0.0200   -0.4440 C   0  0  0  0  0  4           0  0  0
  1  9  1  0     0  0
  1 19  1  0     0  0
  2  6  2  0     0  0
  3 10  1  0     0  0
  3 20  1  0     0  0
  4 10  2  0     0  0
  4 11  1  0     0  0
  5 11  2  0     0  0
  5 12  1  0     0  0
  6 13  1  0     0  0
  7 11  1  0     0  0
  7 14  1  0     0  0
  8 12  1  0     0  0
  9 15  2  0     0  0
  9 16  1  0     0  0
 10 13  1  0     0  0
 12 13  2  0     0  0
 14 15  1  0     0  0
 14 17  2  0     0  0
 16 18  2  0     0  0
 17 18  1  0     0  0
 20 21  1  0     0  0
 21 22  1  0     0  0
 21 23  1  0     0  0
 22 24  1  0     0  0
 23 25  1  0     0  0
 24 26  1  0     0  0
 25 26  1  0     0  0
M  END
> <Compound >
7

> <standard_type>
pIC50

> <# Confs.>
25

> <canonical_smiles>
NC1=C(N=O)C(OCC2CCCCC2)=NC(NC3=CC=CC(SC)=C3)=N1

> <standard_relation>
=

> <predicted_activity_value>
5.9899545873639015

> <actual_activity_value>
6.3979400086720375

> <Publication ID>
nan

> <standard_units>
nM

> hash
10733327821956238231

$$$$
7_
XXILIB    08252103513D 0   0.00000     0.00000

 26 28  0     1  0            999 V2000
   -3.8371   -1.4938    7.1297 S   0  0  0  0  0  2           0  0  0
   -0.5282    0.5741   -3.3495 O   0  0  0  0  0  2           0  0  0
    1.3872    0.0000    0.0000 O   0  0  0  0  0  2           0  0  0
   -0.6613   -0.0000    1.1796 N   0  0  0  0  0  3           0  0  0
   -2.7104    0.0132   -0.0234 N   0  0  0  0  0  3           0  0  0
    0.0579    0.0086   -2.4187 N   0  0  0  0  0  3           0  0  0
   -2.7474   -0.0055    2.3276 N   0  0  0  0  0  3           0  0  0
   -2.7860    0.0173   -2.3759 N   0  0  0  0  0  3           0  0  0
   -2.7598   -0.6688    5.9842 C   0  0  0  0  0  4           0  0  0
    0.0000    0.0000    0.0000 C   0  0  0  0  0  4           0  0  0
   -2.0113    0.0020    1.1355 C   0  0  0  0  0  4           0  0  0
   -2.0357    0.0341   -1.2005 C   0  0  0  0  0  4           0  0  0
   -0.6421    0.0020   -1.2343 C   0  0  0  0  0  4           0  0  0
   -2.3253   -0.0155    3.6594 C   0  0  0  0  0  4           0  0  0
   -3.1323   -0.6352    4.6307 C   0  0  0  0  0  4           0  0  0
   -1.5484   -0.0855    6.3662 C   0  0  0  0  0  4           0  0  0
   -1.1206    0.5679    4.0732 C   0  0  0  0  0  4           0  0  0
   -0.7363    0.5317    5.4148 C   0  0  0  0  0  4           0  0  0
   -2.7584   -2.7913    7.7982 C   0  0  0  0  0  4           0  0  0
    1.9744    0.0000    1.3013 C   0  0  0  0  0  4           0  0  0
    3.4972    0.0000    1.1785 C   0  0  2  0  0  4           0  0  0
    3.9725    1.2460    0.4184 C   0  0  0  0  0  4           0  0  0
    4.0032   -1.2830    0.4968 C   0  0  0  0  0  4           0  0  0
    5.4875    1.2550    0.2326 C   0  0  0  0  0  4           0  0  0
    5.5183   -1.2655    0.3057 C   0  0  0  0  0  4           0  0  0
    5.9790   -0.0200   -0.4440 C   0  0  0  0  0  4           0  0  0
  1  9  1  0     0  0
  1 19  1  0     0  0
  2  6  2  0     0  0
  3 10  1  0     0  0
  3 20  1  0     0  0
  4 10  2  0     0  0
  4 11  1  0     0  0
  5 11  2  0     0  0
  5 12  1  0     0  0
  6 13  1  0     0  0
  7 11  1  0     0  0
  7 14  1  0     0  0
  8 12  1  0     0  0
  9 15  2  0     0  0
  9 16  1  0     0  0
 10 13  1  0     0  0
 12 13  2  0     0  0
 14 15  1  0     0  0
 14 17  2  0     0  0
 16 18  2  0     0  0
 17 18  1  0     0  0
 20 21  1  0     0  0
 21 22  1  0     0  0
 21 23  1  0     0  0
 22 24  1  0     0  0
 23 25  1  0     0  0
 24 26  1  0     0  0
 25 26  1  0     0  0
M  END
> <Compound >
7

> <standard_type>
pIC50

> <# Confs.>
25

> <canonical_smiles>
NC1=C(N=O)C(OCC2CCCCC2)=NC(NC3=CC=CC(SC)=C3)=N1

> <standard_relation>
=

> <predicted_activity_value>
5.9899545873639015

> <actual_activity_value>
6.3979400086720375

> <Publication ID>
nan

> <standard_units>
nM

> hash
10733327821956238231

$$$$
7_
XXILIB    08252103513D 0   0.00000     0.00000

 26 28  0     1  0            999 V2000
   -3.8371   -1.4938    7.1297 S   0  0  0  0  0  2           0  0  0
   -0.5282    0.5741   -3.3495 O   0  0  0  0  0  2           0  0  0
    1.3872    0.0000    0.0000 O   0  0  0  0  0  2           0  0  0
   -0.6613   -0.0000    1.1796 N   0  0  0  0  0  3           0  0  0
   -2.7104    0.0132   -0.0234 N   0  0  0  0  0  3           0  0  0
    0.0579    0.0086   -2.4187 N   0  0  0  0  0  3           0  0  0
   -2.7474   -0.0055    2.3276 N   0  0  0  0  0  3           0  0  0
   -2.7860    0.0173   -2.3759 N   0  0  0  0  0  3           0  0  0
   -2.7598   -0.6688    5.9842 C   0  0  0  0  0  4           0  0  0
    0.0000    0.0000    0.0000 C   0  0  0  0  0  4           0  0  0
   -2.0113    0.0020    1.1355 C   0  0  0  0  0  4           0  0  0
   -2.0357    0.0341   -1.2005 C   0  0  0  0  0  4           0  0  0
   -0.6421    0.0020   -1.2343 C   0  0  0  0  0  4           0  0  0
   -2.3253   -0.0155    3.6594 C   0  0  0  0  0  4           0  0  0
   -3.1323   -0.6352    4.6307 C   0  0  0  0  0  4           0  0  0
   -1.5484   -0.0855    6.3662 C   0  0  0  0  0  4           0  0  0
   -1.1206    0.5679    4.0732 C   0  0  0  0  0  4           0  0  0
   -0.7363    0.5317    5.4148 C   0  0  0  0  0  4           0  0  0
   -4.2660   -0.1557    8.2785 C   0  0  0  0  0  4           0  0  0
    1.9744    0.0000    1.3013 C   0  0  0  0  0  4           0  0  0
    3.4972    0.0000    1.1785 C   0  0  2  0  0  4           0  0  0
    3.9725    1.2460    0.4184 C   0  0  0  0  0  4           0  0  0
    4.0032   -1.2830    0.4968 C   0  0  0  0  0  4           0  0  0
    5.4875    1.2550    0.2326 C   0  0  0  0  0  4           0  0  0
    5.5183   -1.2655    0.3057 C   0  0  0  0  0  4           0  0  0
    5.9790   -0.0200   -0.4440 C   0  0  0  0  0  4           0  0  0
  1  9  1  0     0  0
  1 19  1  0     0  0
  2  6  2  0     0  0
  3 10  1  0     0  0
  3 20  1  0     0  0
  4 10  2  0     0  0
  4 11  1  0     0  0
  5 11  2  0     0  0
  5 12  1  0     0  0
  6 13  1  0     0  0
  7 11  1  0     0  0
  7 14  1  0     0  0
  8 12  1  0     0  0
  9 15  2  0     0  0
  9 16  1  0     0  0
 10 13  1  0     0  0
 12 13  2  0     0  0
 14 15  1  0     0  0
 14 17  2  0     0  0
 16 18  2  0     0  0
 17 18  1  0     0  0
 20 21  1  0     0  0
 21 22  1  0     0  0
 21 23  1  0     0  0
 22 24  1  0     0  0
 23 25  1  0     0  0
 24 26  1  0     0  0
 25 26  1  0     0  0
M  END
> <Compound >
7

> <standard_type>
pIC50

> <# Confs.>
25

> <canonical_smiles>
NC1=C(N=O)C(OCC2CCCCC2)=NC(NC3=CC=CC(SC)=C3)=N1

> <standard_relation>
=

> <predicted_activity_value>
5.9899545873639015

> <actual_activity_value>
6.3979400086720375

> <Publication ID>
nan

> <standard_units>
nM

> hash
10733327821956238231

$$$$
7_
XXILIB    08252103513D 0   0.00000     0.00000

 26 28  0     1  0            999 V2000
   -3.8480    1.3912    7.1546 S   0  0  0  0  0  2           0  0  0
   -0.5282    0.5741   -3.3495 O   0  0  0  0  0  2           0  0  0
    1.3872    0.0000    0.0000 O   0  0  0  0  0  2           0  0  0
   -0.6613   -0.0000    1.1796 N   0  0  0  0  0  3           0  0  0
   -2.7104    0.0132   -0.0234 N   0  0  0  0  0  3           0  0  0
    0.0579    0.0086   -2.4187 N   0  0  0  0  0  3           0  0  0
   -2.7474   -0.0055    2.3276 N   0  0  0  0  0  3           0  0  0
   -2.7860    0.0173   -2.3759 N   0  0  0  0  0  3           0  0  0
   -2.7520    0.6174    5.9913 C   0  0  0  0  0  4           0  0  0
    0.0000    0.0000    0.0000 C   0  0  0  0  0  4           0  0  0
   -2.0113    0.0020    1.1355 C   0  0  0  0  0  4           0  0  0
   -2.0357    0.0341   -1.2005 C   0  0  0  0  0  4           0  0  0
   -0.6421    0.0020   -1.2343 C   0  0  0  0  0  4           0  0  0
   -2.3253   -0.0155    3.6594 C   0  0  0  0  0  4           0  0  0
   -3.1308    0.5925    4.6394 C   0  0  0  0  0  4           0  0  0
   -1.5528    0.0064    6.3682 C   0  0  0  0  0  4           0  0  0
   -1.1249   -0.6127    4.0658 C   0  0  0  0  0  4           0  0  0
   -0.7437   -0.6020    5.4087 C   0  0  0  0  0  4           0  0  0
   -4.2288    0.0235    8.2852 C   0  0  0  0  0  4           0  0  0
    1.9744    0.0000    1.3013 C   0  0  0  0  0  4           0  0  0
    3.4972    0.0000    1.1785 C   0  0  2  0  0  4           0  0  0
    3.9725    1.2460    0.4184 C   0  0  0  0  0  4           0  0  0
    4.0032   -1.2830    0.4968 C   0  0  0  0  0  4           0  0  0
    5.4875    1.2550    0.2326 C   0  0  0  0  0  4           0  0  0
    5.5183   -1.2655    0.3057 C   0  0  0  0  0  4           0  0  0
    5.9790   -0.0200   -0.4440 C   0  0  0  0  0  4           0  0  0
  1  9  1  0     0  0
  1 19  1  0     0  0
  2  6  2  0     0  0
  3 10  1  0     0  0
  3 20  1  0     0  0
  4 10  2  0     0  0
  4 11  1  0     0  0
  5 11  2  0     0  0
  5 12  1  0     0  0
  6 13  1  0     0  0
  7 11  1  0     0  0
  7 14  1  0     0  0
  8 12  1  0     0  0
  9 15  2  0     0  0
  9 16  1  0     0  0
 10 13  1  0     0  0
 12 13  2  0     0  0
 14 15  1  0     0  0
 14 17  2  0     0  0
 16 18  2  0     0  0
 17 18  1  0     0  0
 20 21  1  0     0  0
 21 22  1  0     0  0
 21 23  1  0     0  0
 22 24  1  0     0  0
 23 25  1  0     0  0
 24 26  1  0     0  0
 25 26  1  0     0  0
M  END
> <Compound >
7

> <standard_type>
pIC50

> <# Confs.>
25

> <canonical_smiles>
NC1=C(N=O)C(OCC2CCCCC2)=NC(NC3=CC=CC(SC)=C3)=N1

> <standard_relation>
=

> <predicted_activity_value>
5.9899545873639015

> <actual_activity_value>
6.3979400086720375

> <Publication ID>
nan

> <standard_units>
nM

> hash
10733327821956238231

$$$$
7_
XXILIB    08252103513D 0   0.00000     0.00000

 26 28  0     1  0            999 V2000
   -6.5610    1.4327    5.4661 S   0  0  0  0  0  2           0  0  0
   -0.5282    0.5741   -3.3495 O   0  0  0  0  0  2           0  0  0
    1.3872    0.0000    0.0000 O   0  0  0  0  0  2           0  0  0
   -0.6613   -0.0000    1.1796 N   0  0  0  0  0  3           0  0  0
   -2.7104    0.0132   -0.0234 N   0  0  0  0  0  3           0  0  0
    0.0579    0.0086   -2.4187 N   0  0  0  0  0  3           0  0  0
   -2.7474   -0.0055    2.3276 N   0  0  0  0  0  3           0  0  0
   -2.7860    0.0173   -2.3759 N   0  0  0  0  0  3           0  0  0
   -6.0148    0.6243    3.9824 C   0  0  0  0  0  4           0  0  0
    0.0000    0.0000   -0.0000 C   0  0  0  0  0  4           0  0  0
   -2.0113    0.0020    1.1355 C   0  0  0  0  0  4           0  0  0
   -2.0357    0.0341   -1.2005 C   0  0  0  0  0  4           0  0  0
   -0.6421    0.0020   -1.2343 C   0  0  0  0  0  4           0  0  0
   -4.1272   -0.0054    2.5468 C   0  0  0  0  0  4           0  0  0
   -4.6377    0.6009    3.7089 C   0  0  0  0  0  4           0  0  0
   -6.8956    0.0443    3.0651 C   0  0  0  0  0  4           0  0  0
   -5.0335   -0.5857    1.6497 C   0  0  0  0  0  4           0  0  0
   -6.4053   -0.5596    1.9073 C   0  0  0  0  0  4           0  0  0
   -7.6492    2.7300    4.8130 C   0  0  0  0  0  4           0  0  0
    1.9744    0.0000    1.3013 C   0  0  0  0  0  4           0  0  0
    3.4972    0.0000    1.1785 C   0  0  2  0  0  4           0  0  0
    4.1460   -0.0000    2.5696 C   0  0  0  0  0  4           0  0  0
    3.9909    1.1947    0.3444 C   0  0  0  0  0  4           0  0  0
    5.6693    0.0504    2.4863 C   0  0  0  0  0  4           0  0  0
    5.5156    1.2455    0.2710 C   0  0  0  0  0  4           0  0  0
    6.1486    1.2378    1.6584 C   0  0  0  0  0  4           0  0  0
  1  9  1  0     0  0
  1 19  1  0     0  0
  2  6  2  0     0  0
  3 10  1  0     0  0
  3 20  1  0     0  0
  4 10  2  0     0  0
  4 11  1  0     0  0
  5 11  2  0     0  0
  5 12  1  0     0  0
  6 13  1  0     0  0
  7 11  1  0     0  0
  7 14  1  0     0  0
  8 12  1  0     0  0
  9 15  2  0     0  0
  9 16  1  0     0  0
 10 13  1  0     0  0
 12 13  2  0     0  0
 14 15  1  0     0  0
 14 17  2  0     0  0
 16 18  2  0     0  0
 17 18  1  0     0  0
 20 21  1  0     0  0
 21 22  1  0     0  0
 21 23  1  0     0  0
 22 24  1  0     0  0
 23 25  1  0     0  0
 24 26  1  0     0  0
 25 26  1  0     0  0
M  END
> <Compound >
7

> <standard_type>
pIC50

> <# Confs.>
25

> <canonical_smiles>
NC1=C(N=O)C(OCC2CCCCC2)=NC(NC3=CC=CC(SC)=C3)=N1

> <standard_relation>
=

> <predicted_activity_value>
5.9899545873639015

> <actual_activity_value>
6.3979400086720375

> <Publication ID>
nan

> <standard_units>
nM

> hash
10733327821956238231

$$$$
7_
XXILIB    08252103513D 0   0.00000     0.00000

 26 28  0     1  0            999 V2000
   -6.5610    1.4327    5.4661 S   0  0  0  0  0  2           0  0  0
   -0.5282    0.5741   -3.3495 O   0  0  0  0  0  2           0  0  0
    1.3872    0.0000    0.0000 O   0  0  0  0  0  2           0  0  0
   -0.6613   -0.0000    1.1796 N   0  0  0  0  0  3           0  0  0
   -2.7104    0.0132   -0.0234 N   0  0  0  0  0  3           0  0  0
    0.0579    0.0086   -2.4187 N   0  0  0  0  0  3           0  0  0
   -2.7474   -0.0055    2.3276 N   0  0  0  0  0  3           0  0  0
   -2.7860    0.0173   -2.3759 N   0  0  0  0  0  3           0  0  0
   -6.0148    0.6243    3.9824 C   0  0  0  0  0  4           0  0  0
    0.0000    0.0000   -0.0000 C   0  0  0  0  0  4           0  0  0
   -2.0113    0.0020    1.1355 C   0  0  0  0  0  4           0  0  0
   -2.0357    0.0341   -1.2005 C   0  0  0  0  0  4           0  0  0
   -0.6421    0.0020   -1.2343 C   0  0  0  0  0  4           0  0  0
   -4.1272   -0.0054    2.5468 C   0  0  0  0  0  4           0  0  0
   -4.6377    0.6009    3.7089 C   0  0  0  0  0  4           0  0  0
   -6.8956    0.0443    3.0651 C   0  0  0  0  0  4           0  0  0
   -5.0335   -0.5857    1.6497 C   0  0  0  0  0  4           0  0  0
   -6.4053   -0.5596    1.9073 C   0  0  0  0  0  4           0  0  0
   -7.6492    2.7300    4.8130 C   0  0  0  0  0  4           0  0  0
    1.9744    0.0000    1.3013 C   0  0  0  0  0  4           0  0  0
    3.4972    0.0000    1.1785 C   0  0  2  0  0  4           0  0  0
    3.9725   -1.2460    0.4184 C   0  0  0  0  0  4           0  0  0
    4.1696    0.0883    2.5594 C   0  0  0  0  0  4           0  0  0
    5.4945   -1.3054    0.3197 C   0  0  0  0  0  4           0  0  0
    5.6918    0.0201    2.4559 C   0  0  0  0  0  4           0  0  0
    6.1514   -1.2178    1.6930 C   0  0  0  0  0  4           0  0  0
  1  9  1  0     0  0
  1 19  1  0     0  0
  2  6  2  0     0  0
  3 10  1  0     0  0
  3 20  1  0     0  0
  4 10  2  0     0  0
  4 11  1  0     0  0
  5 11  2  0     0  0
  5 12  1  0     0  0
  6 13  1  0     0  0
  7 11  1  0     0  0
  7 14  1  0     0  0
  8 12  1  0     0  0
  9 15  2  0     0  0
  9 16  1  0     0  0
 10 13  1  0     0  0
 12 13  2  0     0  0
 14 15  1  0     0  0
 14 17  2  0     0  0
 16 18  2  0     0  0
 17 18  1  0     0  0
 20 21  1  0     0  0
 21 22  1  0     0  0
 21 23  1  0     0  0
 22 24  1  0     0  0
 23 25  1  0     0  0
 24 26  1  0     0  0
 25 26  1  0     0  0
M  END
> <Compound >
7

> <standard_type>
pIC50

> <# Confs.>
25

> <canonical_smiles>
NC1=C(N=O)C(OCC2CCCCC2)=NC(NC3=CC=CC(SC)=C3)=N1

> <standard_relation>
=

> <predicted_activity_value>
5.9899545873639015

> <actual_activity_value>
6.3979400086720375

> <Publication ID>
nan

> <standard_units>
nM

> hash
10733327821956238231

$$$$
7_
XXILIB    08252103513D 0   0.00000     0.00000

 26 28  0     1  0            999 V2000
   -6.5622   -1.4525    5.4607 S   0  0  0  0  0  2           0  0  0
   -0.5282    0.5741   -3.3495 O   0  0  0  0  0  2           0  0  0
    1.3872    0.0000    0.0000 O   0  0  0  0  0  2           0  0  0
   -0.6613   -0.0000    1.1796 N   0  0  0  0  0  3           0  0  0
   -2.7104    0.0132   -0.0234 N   0  0  0  0  0  3           0  0  0
    0.0579    0.0086   -2.4187 N   0  0  0  0  0  3           0  0  0
   -2.7474   -0.0055    2.3276 N   0  0  0  0  0  3           0  0  0
   -2.7860    0.0173   -2.3759 N   0  0  0  0  0  3           0  0  0
   -6.0174   -0.6619    3.9669 C   0  0  0  0  0  4           0  0  0
    0.0000    0.0000   -0.0000 C   0  0  0  0  0  4           0  0  0
   -2.0113    0.0020    1.1355 C   0  0  0  0  0  4           0  0  0
   -2.0357    0.0341   -1.2005 C   0  0  0  0  0  4           0  0  0
   -0.6421    0.0020   -1.2343 C   0  0  0  0  0  4           0  0  0
   -4.1272   -0.0054    2.5468 C   0  0  0  0  0  4           0  0  0
   -4.6392   -0.6268    3.7003 C   0  0  0  0  0  4           0  0  0
   -6.8950   -0.0476    3.0691 C   0  0  0  0  0  4           0  0  0
   -5.0316    0.5948    1.6610 C   0  0  0  0  0  4           0  0  0
   -6.4030    0.5740    1.9215 C   0  0  0  0  0  4           0  0  0
   -7.6316   -2.7730    4.8231 C   0  0  0  0  0  4           0  0  0
    1.9744    0.0000    1.3013 C   0  0  0  0  0  4           0  0  0
    3.4972    0.0000    1.1785 C   0  0  2  0  0  4           0  0  0
    4.1460   -0.0000    2.5696 C   0  0  0  0  0  4           0  0  0
    3.9909    1.1947    0.3444 C   0  0  0  0  0  4           0  0  0
    5.6693    0.0504    2.4863 C   0  0  0  0  0  4           0  0  0
    5.5156    1.2455    0.2710 C   0  0  0  0  0  4           0  0  0
    6.1486    1.2378    1.6584 C   0  0  0  0  0  4           0  0  0
  1  9  1  0     0  0
  1 19  1  0     0  0
  2  6  2  0     0  0
  3 10  1  0     0  0
  3 20  1  0     0  0
  4 10  2  0     0  0
  4 11  1  0     0  0
  5 11  2  0     0  0
  5 12  1  0     0  0
  6 13  1  0     0  0
  7 11  1  0     0  0
  7 14  1  0     0  0
  8 12  1  0     0  0
  9 15  2  0     0  0
  9 16  1  0     0  0
 10 13  1  0     0  0
 12 13  2  0     0  0
 14 15  1  0     0  0
 14 17  2  0     0  0
 16 18  2  0     0  0
 17 18  1  0     0  0
 20 21  1  0     0  0
 21 22  1  0     0  0
 21 23  1  0     0  0
 22 24  1  0     0  0
 23 25  1  0     0  0
 24 26  1  0     0  0
 25 26  1  0     0  0
M  END
> <Compound >
7

> <standard_type>
pIC50

> <# Confs.>
25

> <canonical_smiles>
NC1=C(N=O)C(OCC2CCCCC2)=NC(NC3=CC=CC(SC)=C3)=N1

> <standard_relation>
=

> <predicted_activity_value>
5.9899545873639015

> <actual_activity_value>
6.3979400086720375

> <Publication ID>
nan

> <standard_units>
nM

> hash
10733327821956238231

$$$$
7_
XXILIB    08252103513D 0   0.00000     0.00000

 26 28  0     1  0            999 V2000
   -6.5610    1.4327    5.4661 S   0  0  0  0  0  2           0  0  0
   -0.5282    0.5741   -3.3495 O   0  0  0  0  0  2           0  0  0
    1.3872    0.0000    0.0000 O   0  0  0  0  0  2           0  0  0
   -0.6613   -0.0000    1.1796 N   0  0  0  0  0  3           0  0  0
   -2.7104    0.0132   -0.0234 N   0  0  0  0  0  3           0  0  0
    0.0579    0.0086   -2.4187 N   0  0  0  0  0  3           0  0  0
   -2.7474   -0.0055    2.3276 N   0  0  0  0  0  3           0  0  0
   -2.7860    0.0173   -2.3759 N   0  0  0  0  0  3           0  0  0
   -6.0148    0.6243    3.9824 C   0  0  0  0  0  4           0  0  0
    0.0000    0.0000   -0.0000 C   0  0  0  0  0  4           0  0  0
   -2.0113    0.0020    1.1355 C   0  0  0  0  0  4           0  0  0
   -2.0357    0.0341   -1.2005 C   0  0  0  0  0  4           0  0  0
   -0.6421    0.0020   -1.2343 C   0  0  0  0  0  4           0  0  0
   -4.1272   -0.0054    2.5468 C   0  0  0  0  0  4           0  0  0
   -4.6377    0.6009    3.7089 C   0  0  0  0  0  4           0  0  0
   -6.8956    0.0443    3.0651 C   0  0  0  0  0  4           0  0  0
   -5.0335   -0.5857    1.6497 C   0  0  0  0  0  4           0  0  0
   -6.4053   -0.5596    1.9073 C   0  0  0  0  0  4           0  0  0
   -7.3884    0.0818    6.3519 C   0  0  0  0  0  4           0  0  0
    1.9744    0.0000    1.3013 C   0  0  0  0  0  4           0  0  0
    3.4972    0.0000    1.1785 C   0  0  2  0  0  4           0  0  0
    4.1460   -0.0000    2.5696 C   0  0  0  0  0  4           0  0  0
    3.9909    1.1947    0.3444 C   0  0  0  0  0  4           0  0  0
    5.6693    0.0504    2.4863 C   0  0  0  0  0  4           0  0  0
    5.5156    1.2455    0.2710 C   0  0  0  0  0  4           0  0  0
    6.1486    1.2378    1.6584 C   0  0  0  0  0  4           0  0  0
  1  9  1  0     0  0
  1 19  1  0     0  0
  2  6  2  0     0  0
  3 10  1  0     0  0
  3 20  1  0     0  0
  4 10  2  0     0  0
  4 11  1  0     0  0
  5 11  2  0     0  0
  5 12  1  0     0  0
  6 13  1  0     0  0
  7 11  1  0     0  0
  7 14  1  0     0  0
  8 12  1  0     0  0
  9 15  2  0     0  0
  9 16  1  0     0  0
 10 13  1  0     0  0
 12 13  2  0     0  0
 14 15  1  0     0  0
 14 17  2  0     0  0
 16 18  2  0     0  0
 17 18  1  0     0  0
 20 21  1  0     0  0
 21 22  1  0     0  0
 21 23  1  0     0  0
 22 24  1  0     0  0
 23 25  1  0     0  0
 24 26  1  0     0  0
 25 26  1  0     0  0
M  END
> <Compound >
7

> <standard_type>
pIC50

> <# Confs.>
25

> <canonical_smiles>
NC1=C(N=O)C(OCC2CCCCC2)=NC(NC3=CC=CC(SC)=C3)=N1

> <standard_relation>
=

> <predicted_activity_value>
5.9899545873639015

> <actual_activity_value>
6.3979400086720375

> <Publication ID>
nan

> <standard_units>
nM

> hash
10733327821956238231

$$$$
7_
XXILIB    08252103513D 0   0.00000     0.00000

 26 28  0     1  0            999 V2000
   -6.5622   -1.4525    5.4607 S   0  0  0  0  0  2           0  0  0
   -0.5282    0.5741   -3.3495 O   0  0  0  0  0  2           0  0  0
    1.3872    0.0000    0.0000 O   0  0  0  0  0  2           0  0  0
   -0.6613   -0.0000    1.1796 N   0  0  0  0  0  3           0  0  0
   -2.7104    0.0132   -0.0234 N   0  0  0  0  0  3           0  0  0
    0.0579    0.0086   -2.4187 N   0  0  0  0  0  3           0  0  0
   -2.7474   -0.0055    2.3276 N   0  0  0  0  0  3           0  0  0
   -2.7860    0.0173   -2.3759 N   0  0  0  0  0  3           0  0  0
   -6.0174   -0.6619    3.9669 C   0  0  0  0  0  4           0  0  0
    0.0000    0.0000   -0.0000 C   0  0  0  0  0  4           0  0  0
   -2.0113    0.0020    1.1355 C   0  0  0  0  0  4           0  0  0
   -2.0357    0.0341   -1.2005 C   0  0  0  0  0  4           0  0  0
   -0.6421    0.0020   -1.2343 C   0  0  0  0  0  4           0  0  0
   -4.1272   -0.0054    2.5468 C   0  0  0  0  0  4           0  0  0
   -4.6392   -0.6268    3.7003 C   0  0  0  0  0  4           0  0  0
   -6.8950   -0.0476    3.0691 C   0  0  0  0  0  4           0  0  0
   -5.0316    0.5948    1.6610 C   0  0  0  0  0  4           0  0  0
   -6.4030    0.5740    1.9215 C   0  0  0  0  0  4           0  0  0
   -7.6316   -2.7730    4.8231 C   0  0  0  0  0  4           0  0  0
    1.9744    0.0000    1.3013 C   0  0  0  0  0  4           0  0  0
    3.4972    0.0000    1.1785 C   0  0  2  0  0  4           0  0  0
    3.9725   -1.2460    0.4184 C   0  0  0  0  0  4           0  0  0
    4.1696    0.0883    2.5594 C   0  0  0  0  0  4           0  0  0
    5.4945   -1.3054    0.3197 C   0  0  0  0  0  4           0  0  0
    5.6918    0.0201    2.4559 C   0  0  0  0  0  4           0  0  0
    6.1514   -1.2178    1.6930 C   0  0  0  0  0  4           0  0  0
  1  9  1  0     0  0
  1 19  1  0     0  0
  2  6  2  0     0  0
  3 10  1  0     0  0
  3 20  1  0     0  0
  4 10  2  0     0  0
  4 11  1  0     0  0
  5 11  2  0     0  0
  5 12  1  0     0  0
  6 13  1  0     0  0
  7 11  1  0     0  0
  7 14  1  0     0  0
  8 12  1  0     0  0
  9 15  2  0     0  0
  9 16  1  0     0  0
 10 13  1  0     0  0
 12 13  2  0     0  0
 14 15  1  0     0  0
 14 17  2  0     0  0
 16 18  2  0     0  0
 17 18  1  0     0  0
 20 21  1  0     0  0
 21 22  1  0     0  0
 21 23  1  0     0  0
 22 24  1  0     0  0
 23 25  1  0     0  0
 24 26  1  0     0  0
 25 26  1  0     0  0
M  END
> <Compound >
7

> <standard_type>
pIC50

> <# Confs.>
25

> <canonical_smiles>
NC1=C(N=O)C(OCC2CCCCC2)=NC(NC3=CC=CC(SC)=C3)=N1

> <standard_relation>
=

> <predicted_activity_value>
5.9899545873639015

> <actual_activity_value>
6.3979400086720375

> <Publication ID>
nan

> <standard_units>
nM

> hash
10733327821956238231

$$$$
7_
XXILIB    08252103513D 0   0.00000     0.00000

 26 28  0     1  0            999 V2000
   -6.5610    1.4327    5.4661 S   0  0  0  0  0  2           0  0  0
   -0.5282    0.5741   -3.3495 O   0  0  0  0  0  2           0  0  0
    1.3872    0.0000    0.0000 O   0  0  0  0  0  2           0  0  0
   -0.6613   -0.0000    1.1796 N   0  0  0  0  0  3           0  0  0
   -2.7104    0.0132   -0.0234 N   0  0  0  0  0  3           0  0  0
    0.0579    0.0086   -2.4187 N   0  0  0  0  0  3           0  0  0
   -2.7474   -0.0055    2.3276 N   0  0  0  0  0  3           0  0  0
   -2.7860    0.0173   -2.3759 N   0  0  0  0  0  3           0  0  0
   -6.0148    0.6243    3.9824 C   0  0  0  0  0  4           0  0  0
    0.0000    0.0000   -0.0000 C   0  0  0  0  0  4           0  0  0
   -2.0113    0.0020    1.1355 C   0  0  0  0  0  4           0  0  0
   -2.0357    0.0341   -1.2005 C   0  0  0  0  0  4           0  0  0
   -0.6421    0.0020   -1.2343 C   0  0  0  0  0  4           0  0  0
   -4.1272   -0.0054    2.5468 C   0  0  0  0  0  4           0  0  0
   -4.6377    0.6009    3.7089 C   0  0  0  0  0  4           0  0  0
   -6.8956    0.0443    3.0651 C   0  0  0  0  0  4           0  0  0
   -5.0335   -0.5857    1.6497 C   0  0  0  0  0  4           0  0  0
   -6.4053   -0.5596    1.9073 C   0  0  0  0  0  4           0  0  0
   -7.3884    0.0818    6.3519 C   0  0  0  0  0  4           0  0  0
    1.9744    0.0000    1.3013 C   0  0  0  0  0  4           0  0  0
    3.4972    0.0000    1.1785 C   0  0  2  0  0  4           0  0  0
    3.9725   -1.2460    0.4184 C   0  0  0  0  0  4           0  0  0
    4.1696    0.0883    2.5594 C   0  0  0  0  0  4           0  0  0
    5.4945   -1.3054    0.3197 C   0  0  0  0  0  4           0  0  0
    5.6918    0.0201    2.4559 C   0  0  0  0  0  4           0  0  0
    6.1514   -1.2178    1.6930 C   0  0  0  0  0  4           0  0  0
  1  9  1  0     0  0
  1 19  1  0     0  0
  2  6  2  0     0  0
  3 10  1  0     0  0
  3 20  1  0     0  0
  4 10  2  0     0  0
  4 11  1  0     0  0
  5 11  2  0     0  0
  5 12  1  0     0  0
  6 13  1  0     0  0
  7 11  1  0     0  0
  7 14  1  0     0  0
  8 12  1  0     0  0
  9 15  2  0     0  0
  9 16  1  0     0  0
 10 13  1  0     0  0
 12 13  2  0     0  0
 14 15  1  0     0  0
 14 17  2  0     0  0
 16 18  2  0     0  0
 17 18  1  0     0  0
 20 21  1  0     0  0
 21 22  1  0     0  0
 21 23  1  0     0  0
 22 24  1  0     0  0
 23 25  1  0     0  0
 24 26  1  0     0  0
 25 26  1  0     0  0
M  END
> <Compound >
7

> <standard_type>
pIC50

> <# Confs.>
25

> <canonical_smiles>
NC1=C(N=O)C(OCC2CCCCC2)=NC(NC3=CC=CC(SC)=C3)=N1

> <standard_relation>
=

> <predicted_activity_value>
5.9899545873639015

> <actual_activity_value>
6.3979400086720375

> <Publication ID>
nan

> <standard_units>
nM

> hash
10733327821956238231

$$$$
7_
XXILIB    08252103513D 0   0.00000     0.00000

 26 28  0     1  0            999 V2000
    0.9157    1.4223    5.6452 S   0  0  0  0  0  2           0  0  0
   -0.5243   -0.5546   -3.3534 O   0  0  0  0  0  2           0  0  0
    1.3872    0.0000    0.0000 O   0  0  0  0  0  2           0  0  0
   -0.6613   -0.0000    1.1796 N   0  0  0  0  0  3           0  0  0
   -2.7104    0.0132   -0.0234 N   0  0  0  0  0  3           0  0  0
    0.0579    0.0086   -2.4187 N   0  0  0  0  0  3           0  0  0
   -2.7474   -0.0055    2.3276 N   0  0  0  0  0  3           0  0  0
   -2.7860    0.0173   -2.3759 N   0  0  0  0  0  3           0  0  0
   -0.6283    0.6083    5.3182 C   0  0  0  0  0  4           0  0  0
    0.0000    0.0000    0.0000 C   0  0  0  0  0  4           0  0  0
   -2.0113    0.0020    1.1355 C   0  0  0  0  0  4           0  0  0
   -2.0357    0.0341   -1.2005 C   0  0  0  0  0  4           0  0  0
   -0.6421    0.0020   -1.2343 C   0  0  0  0  0  4           0  0  0
   -2.3253   -0.0155    3.6594 C   0  0  0  0  0  4           0  0  0
   -1.1035    0.5946    3.9969 C   0  0  0  0  0  4           0  0  0
   -1.4010    0.0146    6.3202 C   0  0  0  0  0  4           0  0  0
   -3.0742   -0.6095    4.6836 C   0  0  0  0  0  4           0  0  0
   -2.6155   -0.5931    6.0020 C   0  0  0  0  0  4           0  0  0
    1.5527    0.4753    7.0563 C   0  0  0  0  0  4           0  0  0
    1.9744    0.0000    1.3013 C   0  0  0  0  0  4           0  0  0
    3.4972    0.0000    1.1785 C   0  0  2  0  0  4           0  0  0
    4.1460   -0.0000    2.5696 C   0  0  0  0  0  4           0  0  0
    3.9909    1.1947    0.3444 C   0  0  0  0  0  4           0  0  0
    5.6693    0.0504    2.4863 C   0  0  0  0  0  4           0  0  0
    5.5156    1.2455    0.2710 C   0  0  0  0  0  4           0  0  0
    6.1486    1.2378    1.6584 C   0  0  0  0  0  4           0  0  0
  1  9  1  0     0  0
  1 19  1  0     0  0
  2  6  2  0     0  0
  3 10  1  0     0  0
  3 20  1  0     0  0
  4 10  2  0     0  0
  4 11  1  0     0  0
  5 11  2  0     0  0
  5 12  1  0     0  0
  6 13  1  0     0  0
  7 11  1  0     0  0
  7 14  1  0     0  0
  8 12  1  0     0  0
  9 15  2  0     0  0
  9 16  1  0     0  0
 10 13  1  0     0  0
 12 13  2  0     0  0
 14 15  1  0     0  0
 14 17  2  0     0  0
 16 18  2  0     0  0
 17 18  1  0     0  0
 20 21  1  0     0  0
 21 22  1  0     0  0
 21 23  1  0     0  0
 22 24  1  0     0  0
 23 25  1  0     0  0
 24 26  1  0     0  0
 25 26  1  0     0  0
M  END
> <Compound >
7

> <standard_type>
pIC50

> <# Confs.>
25

> <canonical_smiles>
NC1=C(N=O)C(OCC2CCCCC2)=NC(NC3=CC=CC(SC)=C3)=N1

> <standard_relation>
=

> <predicted_activity_value>
5.9899545873639015

> <actual_activity_value>
6.3979400086720375

> <Publication ID>
nan

> <standard_units>
nM

> hash
10733327821956238231

$$$$
7_
XXILIB    08252103513D 0   0.00000     0.00000

 26 28  0     1  0            999 V2000
   -6.5610    1.4327    5.4661 S   0  0  0  0  0  2           0  0  0
   -0.5282    0.5741   -3.3495 O   0  0  0  0  0  2           0  0  0
    1.3872    0.0000    0.0000 O   0  0  0  0  0  2           0  0  0
   -0.6613   -0.0000    1.1796 N   0  0  0  0  0  3           0  0  0
   -2.7104    0.0132   -0.0234 N   0  0  0  0  0  3           0  0  0
    0.0579    0.0086   -2.4187 N   0  0  0  0  0  3           0  0  0
   -2.7474   -0.0055    2.3276 N   0  0  0  0  0  3           0  0  0
   -2.7860    0.0173   -2.3759 N   0  0  0  0  0  3           0  0  0
   -6.0148    0.6243    3.9824 C   0  0  0  0  0  4           0  0  0
    0.0000    0.0000   -0.0000 C   0  0  0  0  0  4           0  0  0
   -2.0113    0.0020    1.1355 C   0  0  0  0  0  4           0  0  0
   -2.0357    0.0341   -1.2005 C   0  0  0  0  0  4           0  0  0
   -0.6421    0.0020   -1.2343 C   0  0  0  0  0  4           0  0  0
   -4.1272   -0.0054    2.5468 C   0  0  0  0  0  4           0  0  0
   -4.6377    0.6009    3.7089 C   0  0  0  0  0  4           0  0  0
   -6.8956    0.0443    3.0651 C   0  0  0  0  0  4           0  0  0
   -5.0335   -0.5857    1.6497 C   0  0  0  0  0  4           0  0  0
   -6.4053   -0.5596    1.9073 C   0  0  0  0  0  4           0  0  0
   -7.6492    2.7300    4.8130 C   0  0  0  0  0  4           0  0  0
    1.9744    0.0000    1.3013 C   0  0  0  0  0  4           0  0  0
    3.4972    0.0000    1.1785 C   0  0  2  0  0  4           0  0  0
    3.9725    1.2460    0.4184 C   0  0  0  0  0  4           0  0  0
    4.0032   -1.2830    0.4968 C   0  0  0  0  0  4           0  0  0
    5.4875    1.2550    0.2326 C   0  0  0  0  0  4           0  0  0
    5.5183   -1.2655    0.3057 C   0  0  0  0  0  4           0  0  0
    5.9790   -0.0200   -0.4440 C   0  0  0  0  0  4           0  0  0
  1  9  1  0     0  0
  1 19  1  0     0  0
  2  6  2  0     0  0
  3 10  1  0     0  0
  3 20  1  0     0  0
  4 10  2  0     0  0
  4 11  1  0     0  0
  5 11  2  0     0  0
  5 12  1  0     0  0
  6 13  1  0     0  0
  7 11  1  0     0  0
  7 14  1  0     0  0
  8 12  1  0     0  0
  9 15  2  0     0  0
  9 16  1  0     0  0
 10 13  1  0     0  0
 12 13  2  0     0  0
 14 15  1  0     0  0
 14 17  2  0     0  0
 16 18  2  0     0  0
 17 18  1  0     0  0
 20 21  1  0     0  0
 21 22  1  0     0  0
 21 23  1  0     0  0
 22 24  1  0     0  0
 23 25  1  0     0  0
 24 26  1  0     0  0
 25 26  1  0     0  0
M  END
> <Compound >
7

> <standard_type>
pIC50

> <# Confs.>
25

> <canonical_smiles>
NC1=C(N=O)C(OCC2CCCCC2)=NC(NC3=CC=CC(SC)=C3)=N1

> <standard_relation>
=

> <predicted_activity_value>
5.9899545873639015

> <actual_activity_value>
6.3979400086720375

> <Publication ID>
nan

> <standard_units>
nM

> hash
10733327821956238231

$$$$
7_
XXILIB    08252103513D 0   0.00000     0.00000

 26 28  0     1  0            999 V2000
    0.9157    1.4223    5.6452 S   0  0  0  0  0  2           0  0  0
   -0.5243   -0.5546   -3.3534 O   0  0  0  0  0  2           0  0  0
    1.3872    0.0000    0.0000 O   0  0  0  0  0  2           0  0  0
   -0.6613   -0.0000    1.1796 N   0  0  0  0  0  3           0  0  0
   -2.7104    0.0132   -0.0234 N   0  0  0  0  0  3           0  0  0
    0.0579    0.0086   -2.4187 N   0  0  0  0  0  3           0  0  0
   -2.7474   -0.0055    2.3276 N   0  0  0  0  0  3           0  0  0
   -2.7860    0.0173   -2.3759 N   0  0  0  0  0  3           0  0  0
   -0.6283    0.6083    5.3182 C   0  0  0  0  0  4           0  0  0
    0.0000    0.0000    0.0000 C   0  0  0  0  0  4           0  0  0
   -2.0113    0.0020    1.1355 C   0  0  0  0  0  4           0  0  0
   -2.0357    0.0341   -1.2005 C   0  0  0  0  0  4           0  0  0
   -0.6421    0.0020   -1.2343 C   0  0  0  0  0  4           0  0  0
   -2.3253   -0.0155    3.6594 C   0  0  0  0  0  4           0  0  0
   -1.1035    0.5946    3.9969 C   0  0  0  0  0  4           0  0  0
   -1.4010    0.0146    6.3202 C   0  0  0  0  0  4           0  0  0
   -3.0742   -0.6095    4.6836 C   0  0  0  0  0  4           0  0  0
   -2.6155   -0.5931    6.0020 C   0  0  0  0  0  4           0  0  0
    1.5527    0.4753    7.0563 C   0  0  0  0  0  4           0  0  0
    1.9744    0.0000    1.3013 C   0  0  0  0  0  4           0  0  0
    3.4972    0.0000    1.1785 C   0  0  2  0  0  4           0  0  0
    3.9725   -1.2460    0.4184 C   0  0  0  0  0  4           0  0  0
    4.1696    0.0883    2.5594 C   0  0  0  0  0  4           0  0  0
    5.4945   -1.3054    0.3197 C   0  0  0  0  0  4           0  0  0
    5.6918    0.0201    2.4559 C   0  0  0  0  0  4           0  0  0
    6.1514   -1.2178    1.6930 C   0  0  0  0  0  4           0  0  0
  1  9  1  0     0  0
  1 19  1  0     0  0
  2  6  2  0     0  0
  3 10  1  0     0  0
  3 20  1  0     0  0
  4 10  2  0     0  0
  4 11  1  0     0  0
  5 11  2  0     0  0
  5 12  1  0     0  0
  6 13  1  0     0  0
  7 11  1  0     0  0
  7 14  1  0     0  0
  8 12  1  0     0  0
  9 15  2  0     0  0
  9 16  1  0     0  0
 10 13  1  0     0  0
 12 13  2  0     0  0
 14 15  1  0     0  0
 14 17  2  0     0  0
 16 18  2  0     0  0
 17 18  1  0     0  0
 20 21  1  0     0  0
 21 22  1  0     0  0
 21 23  1  0     0  0
 22 24  1  0     0  0
 23 25  1  0     0  0
 24 26  1  0     0  0
 25 26  1  0     0  0
M  END
> <Compound >
7

> <standard_type>
pIC50

> <# Confs.>
25

> <canonical_smiles>
NC1=C(N=O)C(OCC2CCCCC2)=NC(NC3=CC=CC(SC)=C3)=N1

> <standard_relation>
=

> <predicted_activity_value>
5.9899545873639015

> <actual_activity_value>
6.3979400086720375

> <Publication ID>
nan

> <standard_units>
nM

> hash
10733327821956238231

$$$$
7_
XXILIB    08252103513D 0   0.00000     0.00000

 26 28  0     1  0            999 V2000
   -3.8371   -1.4938    7.1297 S   0  0  0  0  0  2           0  0  0
   -0.5282    0.5741   -3.3495 O   0  0  0  0  0  2           0  0  0
    1.3872    0.0000   -0.0000 O   0  0  0  0  0  2           0  0  0
   -0.6613   -0.0000    1.1796 N   0  0  0  0  0  3           0  0  0
   -2.7104    0.0132   -0.0234 N   0  0  0  0  0  3           0  0  0
    0.0579    0.0086   -2.4187 N   0  0  0  0  0  3           0  0  0
   -2.7474   -0.0055    2.3276 N   0  0  0  0  0  3           0  0  0
   -2.7860    0.0173   -2.3759 N   0  0  0  0  0  3           0  0  0
   -2.7598   -0.6688    5.9842 C   0  0  0  0  0  4           0  0  0
    0.0000    0.0000    0.0000 C   0  0  0  0  0  4           0  0  0
   -2.0113    0.0020    1.1355 C   0  0  0  0  0  4           0  0  0
   -2.0357    0.0341   -1.2005 C   0  0  0  0  0  4           0  0  0
   -0.6421    0.0020   -1.2343 C   0  0  0  0  0  4           0  0  0
   -2.3253   -0.0155    3.6594 C   0  0  0  0  0  4           0  0  0
   -3.1323   -0.6352    4.6307 C   0  0  0  0  0  4           0  0  0
   -1.5484   -0.0855    6.3662 C   0  0  0  0  0  4           0  0  0
   -1.1206    0.5679    4.0732 C   0  0  0  0  0  4           0  0  0
   -0.7363    0.5317    5.4148 C   0  0  0  0  0  4           0  0  0
   -3.8688   -3.1845    6.4708 C   0  0  0  0  0  4           0  0  0
    1.9744    0.6507    1.1270 C   0  0  0  0  0  4           0  0  0
    3.4972    0.5892    1.0206 C   0  0  2  0  0  4           0  0  0
    4.1460    1.2848    2.2253 C   0  0  0  0  0  4           0  0  0
    3.9909    1.2069   -0.2991 C   0  0  0  0  0  4           0  0  0
    5.6693    1.2869    2.1280 C   0  0  0  0  0  4           0  0  0
    5.5156    1.2141   -0.3880 C   0  0  0  0  0  4           0  0  0
    6.1486    1.9012    0.8173 C   0  0  0  0  0  4           0  0  0
  1  9  1  0     0  0
  1 19  1  0     0  0
  2  6  2  0     0  0
  3 10  1  0     0  0
  3 20  1  0     0  0
  4 10  2  0     0  0
  4 11  1  0     0  0
  5 11  2  0     0  0
  5 12  1  0     0  0
  6 13  1  0     0  0
  7 11  1  0     0  0
  7 14  1  0     0  0
  8 12  1  0     0  0
  9 15  2  0     0  0
  9 16  1  0     0  0
 10 13  1  0     0  0
 12 13  2  0     0  0
 14 15  1  0     0  0
 14 17  2  0     0  0
 16 18  2  0     0  0
 17 18  1  0     0  0
 20 21  1  0     0  0
 21 22  1  0     0  0
 21 23  1  0     0  0
 22 24  1  0     0  0
 23 25  1  0     0  0
 24 26  1  0     0  0
 25 26  1  0     0  0
M  END
> <Compound >
7

> <standard_type>
pIC50

> <# Confs.>
25

> <canonical_smiles>
NC1=C(N=O)C(OCC2CCCCC2)=NC(NC3=CC=CC(SC)=C3)=N1

> <standard_relation>
=

> <predicted_activity_value>
5.9899545873639015

> <actual_activity_value>
6.3979400086720375

> <Publication ID>
nan

> <standard_units>
nM

> hash
10733327821956238231

$$$$
7_
XXILIB    08252103513D 0   0.00000     0.00000

 26 28  0     1  0            999 V2000
   -6.5622   -1.4525    5.4607 S   0  0  0  0  0  2           0  0  0
   -0.5282    0.5741   -3.3495 O   0  0  0  0  0  2           0  0  0
    1.3872    0.0000    0.0000 O   0  0  0  0  0  2           0  0  0
   -0.6613   -0.0000    1.1796 N   0  0  0  0  0  3           0  0  0
   -2.7104    0.0132   -0.0234 N   0  0  0  0  0  3           0  0  0
    0.0579    0.0086   -2.4187 N   0  0  0  0  0  3           0  0  0
   -2.7474   -0.0055    2.3276 N   0  0  0  0  0  3           0  0  0
   -2.7860    0.0173   -2.3759 N   0  0  0  0  0  3           0  0  0
   -6.0174   -0.6619    3.9669 C   0  0  0  0  0  4           0  0  0
    0.0000    0.0000   -0.0000 C   0  0  0  0  0  4           0  0  0
   -2.0113    0.0020    1.1355 C   0  0  0  0  0  4           0  0  0
   -2.0357    0.0341   -1.2005 C   0  0  0  0  0  4           0  0  0
   -0.6421    0.0020   -1.2343 C   0  0  0  0  0  4           0  0  0
   -4.1272   -0.0054    2.5468 C   0  0  0  0  0  4           0  0  0
   -4.6392   -0.6268    3.7003 C   0  0  0  0  0  4           0  0  0
   -6.8950   -0.0476    3.0691 C   0  0  0  0  0  4           0  0  0
   -5.0316    0.5948    1.6610 C   0  0  0  0  0  4           0  0  0
   -6.4030    0.5740    1.9215 C   0  0  0  0  0  4           0  0  0
   -7.6316   -2.7730    4.8231 C   0  0  0  0  0  4           0  0  0
    1.9744    0.0000    1.3013 C   0  0  0  0  0  4           0  0  0
    3.4972    0.0000    1.1785 C   0  0  2  0  0  4           0  0  0
    3.9725    1.2460    0.4184 C   0  0  0  0  0  4           0  0  0
    4.0032   -1.2830    0.4968 C   0  0  0  0  0  4           0  0  0
    5.4875    1.2550    0.2326 C   0  0  0  0  0  4           0  0  0
    5.5183   -1.2655    0.3057 C   0  0  0  0  0  4           0  0  0
    5.9790   -0.0200   -0.4440 C   0  0  0  0  0  4           0  0  0
  1  9  1  0     0  0
  1 19  1  0     0  0
  2  6  2  0     0  0
  3 10  1  0     0  0
  3 20  1  0     0  0
  4 10  2  0     0  0
  4 11  1  0     0  0
  5 11  2  0     0  0
  5 12  1  0     0  0
  6 13  1  0     0  0
  7 11  1  0     0  0
  7 14  1  0     0  0
  8 12  1  0     0  0
  9 15  2  0     0  0
  9 16  1  0     0  0
 10 13  1  0     0  0
 12 13  2  0     0  0
 14 15  1  0     0  0
 14 17  2  0     0  0
 16 18  2  0     0  0
 17 18  1  0     0  0
 20 21  1  0     0  0
 21 22  1  0     0  0
 21 23  1  0     0  0
 22 24  1  0     0  0
 23 25  1  0     0  0
 24 26  1  0     0  0
 25 26  1  0     0  0
M  END
> <Compound >
7

> <standard_type>
pIC50

> <# Confs.>
25

> <canonical_smiles>
NC1=C(N=O)C(OCC2CCCCC2)=NC(NC3=CC=CC(SC)=C3)=N1

> <standard_relation>
=

> <predicted_activity_value>
5.9899545873639015

> <actual_activity_value>
6.3979400086720375

> <Publication ID>
nan

> <standard_units>
nM

> hash
10733327821956238231

$$$$
7_
XXILIB    08252103513D 0   0.00000     0.00000

 26 28  0     1  0            999 V2000
   -3.8480    1.3912    7.1546 S   0  0  0  0  0  2           0  0  0
   -0.5282    0.5741   -3.3495 O   0  0  0  0  0  2           0  0  0
    1.3872    0.0000    0.0000 O   0  0  0  0  0  2           0  0  0
   -0.6613   -0.0000    1.1796 N   0  0  0  0  0  3           0  0  0
   -2.7104    0.0132   -0.0234 N   0  0  0  0  0  3           0  0  0
    0.0579    0.0086   -2.4187 N   0  0  0  0  0  3           0  0  0
   -2.7474   -0.0055    2.3276 N   0  0  0  0  0  3           0  0  0
   -2.7860    0.0173   -2.3759 N   0  0  0  0  0  3           0  0  0
   -2.7520    0.6174    5.9913 C   0  0  0  0  0  4           0  0  0
    0.0000    0.0000    0.0000 C   0  0  0  0  0  4           0  0  0
   -2.0113    0.0020    1.1355 C   0  0  0  0  0  4           0  0  0
   -2.0357    0.0341   -1.2005 C   0  0  0  0  0  4           0  0  0
   -0.6421    0.0020   -1.2343 C   0  0  0  0  0  4           0  0  0
   -2.3253   -0.0155    3.6594 C   0  0  0  0  0  4           0  0  0
   -3.1308    0.5925    4.6394 C   0  0  0  0  0  4           0  0  0
   -1.5528    0.0064    6.3682 C   0  0  0  0  0  4           0  0  0
   -1.1249   -0.6127    4.0658 C   0  0  0  0  0  4           0  0  0
   -0.7437   -0.6020    5.4087 C   0  0  0  0  0  4           0  0  0
   -3.9358    3.0899    6.5215 C   0  0  0  0  0  4           0  0  0
    1.9744   -0.6507    1.1270 C   0  0  0  0  0  4           0  0  0
    3.4972   -0.5892    1.0206 C   0  0  2  0  0  4           0  0  0
    3.9725   -1.2883   -0.2606 C   0  0  0  0  0  4           0  0  0
    4.1696   -1.2033    2.2607 C   0  0  0  0  0  4           0  0  0
    5.4945   -1.2904   -0.3759 C   0  0  0  0  0  4           0  0  0
    5.6918   -1.2106    2.1369 C   0  0  0  0  0  4           0  0  0
    6.1514   -1.9011    0.8573 C   0  0  0  0  0  4           0  0  0
  1  9  1  0     0  0
  1 19  1  0     0  0
  2  6  2  0     0  0
  3 10  1  0     0  0
  3 20  1  0     0  0
  4 10  2  0     0  0
  4 11  1  0     0  0
  5 11  2  0     0  0
  5 12  1  0     0  0
  6 13  1  0     0  0
  7 11  1  0     0  0
  7 14  1  0     0  0
  8 12  1  0     0  0
  9 15  2  0     0  0
  9 16  1  0     0  0
 10 13  1  0     0  0
 12 13  2  0     0  0
 14 15  1  0     0  0
 14 17  2  0     0  0
 16 18  2  0     0  0
 17 18  1  0     0  0
 20 21  1  0     0  0
 21 22  1  0     0  0
 21 23  1  0     0  0
 22 24  1  0     0  0
 23 25  1  0     0  0
 24 26  1  0     0  0
 25 26  1  0     0  0
M  END
> <Compound >
7

> <standard_type>
pIC50

> <# Confs.>
25

> <canonical_smiles>
NC1=C(N=O)C(OCC2CCCCC2)=NC(NC3=CC=CC(SC)=C3)=N1

> <standard_relation>
=

> <predicted_activity_value>
5.9899545873639015

> <actual_activity_value>
6.3979400086720375

> <Publication ID>
nan

> <standard_units>
nM

> hash
10733327821956238231

$$$$
7_
XXILIB    08252103513D 0   0.00000     0.00000

 26 28  0     1  0            999 V2000
   -6.5610    1.4327    5.4661 S   0  0  0  0  0  2           0  0  0
   -0.5282    0.5741   -3.3495 O   0  0  0  0  0  2           0  0  0
    1.3872    0.0000    0.0000 O   0  0  0  0  0  2           0  0  0
   -0.6613   -0.0000    1.1796 N   0  0  0  0  0  3           0  0  0
   -2.7104    0.0132   -0.0234 N   0  0  0  0  0  3           0  0  0
    0.0579    0.0086   -2.4187 N   0  0  0  0  0  3           0  0  0
   -2.7474   -0.0055    2.3276 N   0  0  0  0  0  3           0  0  0
   -2.7860    0.0173   -2.3759 N   0  0  0  0  0  3           0  0  0
   -6.0148    0.6243    3.9824 C   0  0  0  0  0  4           0  0  0
    0.0000    0.0000   -0.0000 C   0  0  0  0  0  4           0  0  0
   -2.0113    0.0020    1.1355 C   0  0  0  0  0  4           0  0  0
   -2.0357    0.0341   -1.2005 C   0  0  0  0  0  4           0  0  0
   -0.6421    0.0020   -1.2343 C   0  0  0  0  0  4           0  0  0
   -4.1272   -0.0054    2.5468 C   0  0  0  0  0  4           0  0  0
   -4.6377    0.6009    3.7089 C   0  0  0  0  0  4           0  0  0
   -6.8956    0.0443    3.0651 C   0  0  0  0  0  4           0  0  0
   -5.0335   -0.5857    1.6497 C   0  0  0  0  0  4           0  0  0
   -6.4053   -0.5596    1.9073 C   0  0  0  0  0  4           0  0  0
   -7.3884    0.0818    6.3519 C   0  0  0  0  0  4           0  0  0
    1.9744    0.0000    1.3013 C   0  0  0  0  0  4           0  0  0
    3.4972    0.0000    1.1785 C   0  0  2  0  0  4           0  0  0
    3.9725    1.2460    0.4184 C   0  0  0  0  0  4           0  0  0
    4.0032   -1.2830    0.4968 C   0  0  0  0  0  4           0  0  0
    5.4875    1.2550    0.2326 C   0  0  0  0  0  4           0  0  0
    5.5183   -1.2655    0.3057 C   0  0  0  0  0  4           0  0  0
    5.9790   -0.0200   -0.4440 C   0  0  0  0  0  4           0  0  0
  1  9  1  0     0  0
  1 19  1  0     0  0
  2  6  2  0     0  0
  3 10  1  0     0  0
  3 20  1  0     0  0
  4 10  2  0     0  0
  4 11  1  0     0  0
  5 11  2  0     0  0
  5 12  1  0     0  0
  6 13  1  0     0  0
  7 11  1  0     0  0
  7 14  1  0     0  0
  8 12  1  0     0  0
  9 15  2  0     0  0
  9 16  1  0     0  0
 10 13  1  0     0  0
 12 13  2  0     0  0
 14 15  1  0     0  0
 14 17  2  0     0  0
 16 18  2  0     0  0
 17 18  1  0     0  0
 20 21  1  0     0  0
 21 22  1  0     0  0
 21 23  1  0     0  0
 22 24  1  0     0  0
 23 25  1  0     0  0
 24 26  1  0     0  0
 25 26  1  0     0  0
M  END
> <Compound >
7

> <standard_type>
pIC50

> <# Confs.>
25

> <canonical_smiles>
NC1=C(N=O)C(OCC2CCCCC2)=NC(NC3=CC=CC(SC)=C3)=N1

> <standard_relation>
=

> <predicted_activity_value>
5.9899545873639015

> <actual_activity_value>
6.3979400086720375

> <Publication ID>
nan

> <standard_units>
nM

> hash
10733327821956238231

$$$$
8_
XXILIB    08252103513D 0   0.00000     0.00000

 27 29  0     1  0            999 V2000
    1.3875    0.0000    0.0000 O   0  0  0  0  0  2           0  0  0
   -8.6101   -0.4865    4.7905 O   0  0  0  0  0  2           0  0  0
   -0.4328   -0.4765   -3.4890 O   0  0  0  0  0  2           0  0  0
   -8.9568    0.6616    2.8517 O   0  0  0  0  0  2           0  0  0
   -0.6499    0.0000    1.1864 N   0  0  0  0  0  3           0  0  0
   -2.7122    0.0342    0.0119 N   0  0  0  0  0  3           0  0  0
   -2.6631    0.0365    2.3947 N   0  0  0  0  0  3           0  0  0
   -2.8329    0.0396   -2.3297 N   0  0  0  0  0  3           0  0  0
    0.0000    0.0000    0.0000 C   0  0  0  0  0  4           0  0  0
   -1.9979    0.0227    1.1620 C   0  0  0  0  0  4           0  0  0
   -2.0552    0.0092   -1.1749 C   0  0  0  0  0  4           0  0  0
   -4.0268    0.0602    2.6966 C   0  0  0  0  0  4           0  0  0
   -0.6626    0.0120   -1.2221 C   0  0  0  0  0  4           0  0  0
   -6.7708    0.0625    3.3757 C   0  0  0  0  0  4           0  0  0
   -4.4788   -0.5414    3.8806 C   0  0  0  0  0  4           0  0  0
   -4.9763    0.6628    1.8589 C   0  0  0  0  0  4           0  0  0
   -5.8353   -0.5432    4.2191 C   0  0  0  0  0  4           0  0  0
   -6.3360    0.6650    2.1916 C   0  0  0  0  0  4           0  0  0
   -8.1898    0.0333    3.7707 C   0  0  0  0  0  4           0  0  0
    0.0530    0.0406   -2.4924 C   0  0  0  0  0  4           0  0  0
    1.9722    0.0000    1.3021 C   0  0  0  0  0  4           0  0  0
    3.4954    0.0000    1.1835 C   0  0  2  0  0  4           0  0  0
    4.0002   -1.2392    0.4266 C   0  0  0  0  0  4           0  0  0
    4.1676    0.0941    2.5630 C   0  0  0  0  0  4           0  0  0
    5.5231   -1.2470    0.3124 C   0  0  0  0  0  4           0  0  0
    5.6910    0.0850    2.4481 C   0  0  0  0  0  4           0  0  0
    6.1886   -1.1358    1.6804 C   0  0  0  0  0  4           0  0  0
  1  9  1  0     0  0
  1 21  1  0     0  0
  2 19  2  0     0  0
  3 20  2  0     0  0
  4 19  1  0     0  0
  5  9  2  0     0  0
  5 10  1  0     0  0
  6 10  2  0     0  0
  6 11  1  0     0  0
  7 10  1  0     0  0
  7 12  1  0     0  0
  8 11  1  0     0  0
  9 13  1  0     0  0
 11 13  2  0     0  0
 12 15  2  0     0  0
 12 16  1  0     0  0
 13 20  1  0     0  0
 14 17  2  0     0  0
 14 18  1  0     0  0
 14 19  1  0     0  0
 15 17  1  0     0  0
 16 18  2  0     0  0
 21 22  1  0     0  0
 22 23  1  0     0  0
 22 24  1  0     0  0
 23 25  1  0     0  0
 24 26  1  0     0  0
 25 27  1  0     0  0
 26 27  1  0     0  0
M  END
> <Compound >
8

> <standard_type>
pIC50

> <# Confs.>
25

> <canonical_smiles>
NC1=C(C([H])=O)C(OCC2CCCCC2)=NC(NC3=CC=C(C(O)=O)C=C3)=N1

> <standard_relation>
=

> <predicted_activity_value>
6.3810110796350665

> <actual_activity_value>
6.214670164989233

> <Publication ID>
nan

> <standard_units>
nM

> hash
15825024621968746168

$$$$
8_
XXILIB    08252103513D 0   0.00000     0.00000

 27 29  0     1  0            999 V2000
    1.3875    0.0000    0.0000 O   0  0  0  0  0  2           0  0  0
   -8.6101   -0.4865    4.7905 O   0  0  0  0  0  2           0  0  0
   -0.4328   -0.4765   -3.4890 O   0  0  0  0  0  2           0  0  0
   -8.9568    0.6616    2.8517 O   0  0  0  0  0  2           0  0  0
   -0.6499    0.0000    1.1864 N   0  0  0  0  0  3           0  0  0
   -2.7122    0.0342    0.0119 N   0  0  0  0  0  3           0  0  0
   -2.6631    0.0365    2.3947 N   0  0  0  0  0  3           0  0  0
   -2.8329    0.0396   -2.3297 N   0  0  0  0  0  3           0  0  0
    0.0000    0.0000    0.0000 C   0  0  0  0  0  4           0  0  0
   -1.9979    0.0227    1.1620 C   0  0  0  0  0  4           0  0  0
   -2.0552    0.0092   -1.1749 C   0  0  0  0  0  4           0  0  0
   -4.0268    0.0602    2.6966 C   0  0  0  0  0  4           0  0  0
   -0.6626    0.0120   -1.2221 C   0  0  0  0  0  4           0  0  0
   -6.7708    0.0625    3.3757 C   0  0  0  0  0  4           0  0  0
   -4.4788   -0.5414    3.8806 C   0  0  0  0  0  4           0  0  0
   -4.9763    0.6628    1.8589 C   0  0  0  0  0  4           0  0  0
   -5.8353   -0.5432    4.2191 C   0  0  0  0  0  4           0  0  0
   -6.3360    0.6650    2.1916 C   0  0  0  0  0  4           0  0  0
   -8.1898    0.0333    3.7707 C   0  0  0  0  0  4           0  0  0
    0.0530    0.0406   -2.4924 C   0  0  0  0  0  4           0  0  0
    1.9722    0.0000    1.3021 C   0  0  0  0  0  4           0  0  0
    3.4954    0.0000    1.1835 C   0  0  2  0  0  4           0  0  0
    4.0002    1.2392    0.4266 C   0  0  0  0  0  4           0  0  0
    4.0077   -1.2833    0.5094 C   0  0  0  0  0  4           0  0  0
    5.5220    1.2392    0.2990 C   0  0  0  0  0  4           0  0  0
    5.5300   -1.2820    0.3811 C   0  0  0  0  0  4           0  0  0
    6.0302   -0.0423   -0.3539 C   0  0  0  0  0  4           0  0  0
  1  9  1  0     0  0
  1 21  1  0     0  0
  2 19  2  0     0  0
  3 20  2  0     0  0
  4 19  1  0     0  0
  5  9  2  0     0  0
  5 10  1  0     0  0
  6 10  2  0     0  0
  6 11  1  0     0  0
  7 10  1  0     0  0
  7 12  1  0     0  0
  8 11  1  0     0  0
  9 13  1  0     0  0
 11 13  2  0     0  0
 12 15  2  0     0  0
 12 16  1  0     0  0
 13 20  1  0     0  0
 14 17  2  0     0  0
 14 18  1  0     0  0
 14 19  1  0     0  0
 15 17  1  0     0  0
 16 18  2  0     0  0
 21 22  1  0     0  0
 22 23  1  0     0  0
 22 24  1  0     0  0
 23 25  1  0     0  0
 24 26  1  0     0  0
 25 27  1  0     0  0
 26 27  1  0     0  0
M  END
> <Compound >
8

> <standard_type>
pIC50

> <# Confs.>
25

> <canonical_smiles>
NC1=C(C([H])=O)C(OCC2CCCCC2)=NC(NC3=CC=C(C(O)=O)C=C3)=N1

> <standard_relation>
=

> <predicted_activity_value>
6.3810110796350665

> <actual_activity_value>
6.214670164989233

> <Publication ID>
nan

> <standard_units>
nM

> hash
15825024621968746168

$$$$
8_
XXILIB    08252103513D 0   0.00000     0.00000

 27 29  0     1  0            999 V2000
    1.3875    0.0000    0.0000 O   0  0  0  0  0  2           0  0  0
   -8.6101   -0.4865    4.7905 O   0  0  0  0  0  2           0  0  0
   -0.4328   -0.4765   -3.4890 O   0  0  0  0  0  2           0  0  0
   -8.9568    0.6616    2.8517 O   0  0  0  0  0  2           0  0  0
   -0.6499    0.0000    1.1864 N   0  0  0  0  0  3           0  0  0
   -2.7122    0.0342    0.0119 N   0  0  0  0  0  3           0  0  0
   -2.6631    0.0365    2.3947 N   0  0  0  0  0  3           0  0  0
   -2.8329    0.0396   -2.3297 N   0  0  0  0  0  3           0  0  0
    0.0000    0.0000    0.0000 C   0  0  0  0  0  4           0  0  0
   -1.9979    0.0227    1.1620 C   0  0  0  0  0  4           0  0  0
   -2.0552    0.0092   -1.1749 C   0  0  0  0  0  4           0  0  0
   -4.0268    0.0602    2.6966 C   0  0  0  0  0  4           0  0  0
   -0.6626    0.0120   -1.2221 C   0  0  0  0  0  4           0  0  0
   -6.7708    0.0625    3.3757 C   0  0  0  0  0  4           0  0  0
   -4.4788   -0.5414    3.8806 C   0  0  0  0  0  4           0  0  0
   -4.9763    0.6628    1.8589 C   0  0  0  0  0  4           0  0  0
   -5.8353   -0.5432    4.2191 C   0  0  0  0  0  4           0  0  0
   -6.3360    0.6650    2.1916 C   0  0  0  0  0  4           0  0  0
   -8.1898    0.0333    3.7707 C   0  0  0  0  0  4           0  0  0
    0.0530    0.0406   -2.4924 C   0  0  0  0  0  4           0  0  0
    1.9722    0.0000    1.3021 C   0  0  0  0  0  4           0  0  0
    3.4954    0.0000    1.1835 C   0  0  2  0  0  4           0  0  0
    4.1669    0.0000    2.5664 C   0  0  0  0  0  4           0  0  0
    3.9950    1.1893    0.3469 C   0  0  0  0  0  4           0  0  0
    5.6898    0.0077    2.4523 C   0  0  0  0  0  4           0  0  0
    5.5185    1.1970    0.2342 C   0  0  0  0  0  4           0  0  0
    6.1829    1.1781    1.6074 C   0  0  0  0  0  4           0  0  0
  1  9  1  0     0  0
  1 21  1  0     0  0
  2 19  2  0     0  0
  3 20  2  0     0  0
  4 19  1  0     0  0
  5  9  2  0     0  0
  5 10  1  0     0  0
  6 10  2  0     0  0
  6 11  1  0     0  0
  7 10  1  0     0  0
  7 12  1  0     0  0
  8 11  1  0     0  0
  9 13  1  0     0  0
 11 13  2  0     0  0
 12 15  2  0     0  0
 12 16  1  0     0  0
 13 20  1  0     0  0
 14 17  2  0     0  0
 14 18  1  0     0  0
 14 19  1  0     0  0
 15 17  1  0     0  0
 16 18  2  0     0  0
 21 22  1  0     0  0
 22 23  1  0     0  0
 22 24  1  0     0  0
 23 25  1  0     0  0
 24 26  1  0     0  0
 25 27  1  0     0  0
 26 27  1  0     0  0
M  END
> <Compound >
8

> <standard_type>
pIC50

> <# Confs.>
25

> <canonical_smiles>
NC1=C(C([H])=O)C(OCC2CCCCC2)=NC(NC3=CC=C(C(O)=O)C=C3)=N1

> <standard_relation>
=

> <predicted_activity_value>
6.3810110796350665

> <actual_activity_value>
6.214670164989233

> <Publication ID>
nan

> <standard_units>
nM

> hash
15825024621968746168

$$$$
8_
XXILIB    08252103513D 0   0.00000     0.00000

 27 29  0     1  0            999 V2000
    1.3875    0.0000    0.0000 O   0  0  0  0  0  2           0  0  0
   -1.3956    0.6569    8.6708 O   0  0  0  0  0  2           0  0  0
   -0.4328   -0.4765   -3.4890 O   0  0  0  0  0  2           0  0  0
    0.4044   -0.5214    7.9164 O   0  0  0  0  0  2           0  0  0
   -0.6499    0.0000    1.1864 N   0  0  0  0  0  3           0  0  0
   -2.7122    0.0342    0.0119 N   0  0  0  0  0  3           0  0  0
   -2.6631    0.0365    2.3947 N   0  0  0  0  0  3           0  0  0
   -2.8329    0.0396   -2.3297 N   0  0  0  0  0  3           0  0  0
    0.0000    0.0000    0.0000 C   0  0  0  0  0  4           0  0  0
   -1.9979    0.0227    1.1620 C   0  0  0  0  0  4           0  0  0
   -2.0552    0.0092   -1.1749 C   0  0  0  0  0  4           0  0  0
   -2.1670    0.0309    3.7005 C   0  0  0  0  0  4           0  0  0
   -0.6626    0.0120   -1.2221 C   0  0  0  0  0  4           0  0  0
   -1.2280    0.0661    6.3666 C   0  0  0  0  0  4           0  0  0
   -2.9027    0.6572    4.7177 C   0  0  0  0  0  4           0  0  0
   -0.9512   -0.5773    4.0449 C   0  0  0  0  0  4           0  0  0
   -2.4409    0.6776    6.0371 C   0  0  0  0  0  4           0  0  0
   -0.4828   -0.5609    5.3639 C   0  0  0  0  0  4           0  0  0
   -0.7789    0.1156    7.7689 C   0  0  0  0  0  4           0  0  0
    0.0530    0.0406   -2.4924 C   0  0  0  0  0  4           0  0  0
    1.9722    0.0000    1.3021 C   0  0  0  0  0  4           0  0  0
    3.4954    0.0000    1.1835 C   0  0  2  0  0  4           0  0  0
    4.0002   -1.2392    0.4266 C   0  0  0  0  0  4           0  0  0
    4.1676    0.0941    2.5630 C   0  0  0  0  0  4           0  0  0
    5.5231   -1.2470    0.3124 C   0  0  0  0  0  4           0  0  0
    5.6910    0.0850    2.4481 C   0  0  0  0  0  4           0  0  0
    6.1886   -1.1358    1.6804 C   0  0  0  0  0  4           0  0  0
  1  9  1  0     0  0
  1 21  1  0     0  0
  2 19  2  0     0  0
  3 20  2  0     0  0
  4 19  1  0     0  0
  5  9  2  0     0  0
  5 10  1  0     0  0
  6 10  2  0     0  0
  6 11  1  0     0  0
  7 10  1  0     0  0
  7 12  1  0     0  0
  8 11  1  0     0  0
  9 13  1  0     0  0
 11 13  2  0     0  0
 12 15  2  0     0  0
 12 16  1  0     0  0
 13 20  1  0     0  0
 14 17  2  0     0  0
 14 18  1  0     0  0
 14 19  1  0     0  0
 15 17  1  0     0  0
 16 18  2  0     0  0
 21 22  1  0     0  0
 22 23  1  0     0  0
 22 24  1  0     0  0
 23 25  1  0     0  0
 24 26  1  0     0  0
 25 27  1  0     0  0
 26 27  1  0     0  0
M  END
> <Compound >
8

> <standard_type>
pIC50

> <# Confs.>
25

> <canonical_smiles>
NC1=C(C([H])=O)C(OCC2CCCCC2)=NC(NC3=CC=C(C(O)=O)C=C3)=N1

> <standard_relation>
=

> <predicted_activity_value>
6.3810110796350665

> <actual_activity_value>
6.214670164989233

> <Publication ID>
nan

> <standard_units>
nM

> hash
15825024621968746168

$$$$
8_
XXILIB    08252103513D 0   0.00000     0.00000

 27 29  0     1  0            999 V2000
    1.3875    0.0000    0.0000 O   0  0  0  0  0  2           0  0  0
   -8.5858    0.7409    4.8043 O   0  0  0  0  0  2           0  0  0
   -0.4328   -0.4765   -3.4890 O   0  0  0  0  0  2           0  0  0
   -8.9726   -0.3896    2.8627 O   0  0  0  0  0  2           0  0  0
   -0.6499    0.0000    1.1864 N   0  0  0  0  0  3           0  0  0
   -2.7122    0.0342    0.0119 N   0  0  0  0  0  3           0  0  0
   -2.6631    0.0365    2.3947 N   0  0  0  0  0  3           0  0  0
   -2.8329    0.0396   -2.3297 N   0  0  0  0  0  3           0  0  0
    0.0000    0.0000    0.0000 C   0  0  0  0  0  4           0  0  0
   -1.9979    0.0227    1.1620 C   0  0  0  0  0  4           0  0  0
   -2.0552    0.0092   -1.1749 C   0  0  0  0  0  4           0  0  0
   -4.0268    0.0602    2.6966 C   0  0  0  0  0  4           0  0  0
   -0.6626    0.0120   -1.2221 C   0  0  0  0  0  4           0  0  0
   -6.7685    0.1458    3.3797 C   0  0  0  0  0  4           0  0  0
   -4.4582    0.6816    3.8780 C   0  0  0  0  0  4           0  0  0
   -4.9957   -0.5180    1.8638 C   0  0  0  0  0  4           0  0  0
   -5.8132    0.7248    4.2197 C   0  0  0  0  0  4           0  0  0
   -6.3540   -0.4783    2.1995 C   0  0  0  0  0  4           0  0  0
   -8.1843    0.2121    3.7815 C   0  0  0  0  0  4           0  0  0
    0.0530    0.0406   -2.4924 C   0  0  0  0  0  4           0  0  0
    1.9722    0.0000    1.3021 C   0  0  0  0  0  4           0  0  0
    3.4954    0.0000    1.1835 C   0  0  2  0  0  4           0  0  0
    4.0002   -1.2392    0.4266 C   0  0  0  0  0  4           0  0  0
    4.1676    0.0941    2.5630 C   0  0  0  0  0  4           0  0  0
    5.5231   -1.2470    0.3124 C   0  0  0  0  0  4           0  0  0
    5.6910    0.0850    2.4481 C   0  0  0  0  0  4           0  0  0
    6.1886   -1.1358    1.6804 C   0  0  0  0  0  4           0  0  0
  1  9  1  0     0  0
  1 21  1  0     0  0
  2 19  2  0     0  0
  3 20  2  0     0  0
  4 19  1  0     0  0
  5  9  2  0     0  0
  5 10  1  0     0  0
  6 10  2  0     0  0
  6 11  1  0     0  0
  7 10  1  0     0  0
  7 12  1  0     0  0
  8 11  1  0     0  0
  9 13  1  0     0  0
 11 13  2  0     0  0
 12 15  2  0     0  0
 12 16  1  0     0  0
 13 20  1  0     0  0
 14 17  2  0     0  0
 14 18  1  0     0  0
 14 19  1  0     0  0
 15 17  1  0     0  0
 16 18  2  0     0  0
 21 22  1  0     0  0
 22 23  1  0     0  0
 22 24  1  0     0  0
 23 25  1  0     0  0
 24 26  1  0     0  0
 25 27  1  0     0  0
 26 27  1  0     0  0
M  END
> <Compound >
8

> <standard_type>
pIC50

> <# Confs.>
25

> <canonical_smiles>
NC1=C(C([H])=O)C(OCC2CCCCC2)=NC(NC3=CC=C(C(O)=O)C=C3)=N1

> <standard_relation>
=

> <predicted_activity_value>
6.3810110796350665

> <actual_activity_value>
6.214670164989233

> <Publication ID>
nan

> <standard_units>
nM

> hash
15825024621968746168

$$$$
8_
XXILIB    08252103513D 0   0.00000     0.00000

 27 29  0     1  0            999 V2000
    1.3875    0.0000    0.0000 O   0  0  0  0  0  2           0  0  0
   -8.5858    0.7409    4.8043 O   0  0  0  0  0  2           0  0  0
   -0.4328   -0.4765   -3.4890 O   0  0  0  0  0  2           0  0  0
   -8.9726   -0.3896    2.8627 O   0  0  0  0  0  2           0  0  0
   -0.6499    0.0000    1.1864 N   0  0  0  0  0  3           0  0  0
   -2.7122    0.0342    0.0119 N   0  0  0  0  0  3           0  0  0
   -2.6631    0.0365    2.3947 N   0  0  0  0  0  3           0  0  0
   -2.8329    0.0396   -2.3297 N   0  0  0  0  0  3           0  0  0
    0.0000    0.0000    0.0000 C   0  0  0  0  0  4           0  0  0
   -1.9979    0.0227    1.1620 C   0  0  0  0  0  4           0  0  0
   -2.0552    0.0092   -1.1749 C   0  0  0  0  0  4           0  0  0
   -4.0268    0.0602    2.6966 C   0  0  0  0  0  4           0  0  0
   -0.6626    0.0120   -1.2221 C   0  0  0  0  0  4           0  0  0
   -6.7685    0.1458    3.3797 C   0  0  0  0  0  4           0  0  0
   -4.4582    0.6816    3.8780 C   0  0  0  0  0  4           0  0  0
   -4.9957   -0.5180    1.8638 C   0  0  0  0  0  4           0  0  0
   -5.8132    0.7248    4.2197 C   0  0  0  0  0  4           0  0  0
   -6.3540   -0.4783    2.1995 C   0  0  0  0  0  4           0  0  0
   -8.1843    0.2121    3.7815 C   0  0  0  0  0  4           0  0  0
    0.0530    0.0406   -2.4924 C   0  0  0  0  0  4           0  0  0
    1.9722    0.0000    1.3021 C   0  0  0  0  0  4           0  0  0
    3.4954    0.0000    1.1835 C   0  0  2  0  0  4           0  0  0
    4.0002    1.2392    0.4266 C   0  0  0  0  0  4           0  0  0
    4.0077   -1.2833    0.5094 C   0  0  0  0  0  4           0  0  0
    5.5220    1.2392    0.2990 C   0  0  0  0  0  4           0  0  0
    5.5300   -1.2820    0.3811 C   0  0  0  0  0  4           0  0  0
    6.0302   -0.0423   -0.3539 C   0  0  0  0  0  4           0  0  0
  1  9  1  0     0  0
  1 21  1  0     0  0
  2 19  2  0     0  0
  3 20  2  0     0  0
  4 19  1  0     0  0
  5  9  2  0     0  0
  5 10  1  0     0  0
  6 10  2  0     0  0
  6 11  1  0     0  0
  7 10  1  0     0  0
  7 12  1  0     0  0
  8 11  1  0     0  0
  9 13  1  0     0  0
 11 13  2  0     0  0
 12 15  2  0     0  0
 12 16  1  0     0  0
 13 20  1  0     0  0
 14 17  2  0     0  0
 14 18  1  0     0  0
 14 19  1  0     0  0
 15 17  1  0     0  0
 16 18  2  0     0  0
 21 22  1  0     0  0
 22 23  1  0     0  0
 22 24  1  0     0  0
 23 25  1  0     0  0
 24 26  1  0     0  0
 25 27  1  0     0  0
 26 27  1  0     0  0
M  END
> <Compound >
8

> <standard_type>
pIC50

> <# Confs.>
25

> <canonical_smiles>
NC1=C(C([H])=O)C(OCC2CCCCC2)=NC(NC3=CC=C(C(O)=O)C=C3)=N1

> <standard_relation>
=

> <predicted_activity_value>
6.3810110796350665

> <actual_activity_value>
6.214670164989233

> <Publication ID>
nan

> <standard_units>
nM

> hash
15825024621968746168

$$$$
8_
XXILIB    08252103513D 0   0.00000     0.00000

 27 29  0     1  0            999 V2000
    1.3875    0.0000    0.0000 O   0  0  0  0  0  2           0  0  0
   -8.5858    0.7409    4.8043 O   0  0  0  0  0  2           0  0  0
   -0.4328   -0.4765   -3.4890 O   0  0  0  0  0  2           0  0  0
   -8.9726   -0.3896    2.8627 O   0  0  0  0  0  2           0  0  0
   -0.6499    0.0000    1.1864 N   0  0  0  0  0  3           0  0  0
   -2.7122    0.0342    0.0119 N   0  0  0  0  0  3           0  0  0
   -2.6631    0.0365    2.3947 N   0  0  0  0  0  3           0  0  0
   -2.8329    0.0396   -2.3297 N   0  0  0  0  0  3           0  0  0
    0.0000    0.0000    0.0000 C   0  0  0  0  0  4           0  0  0
   -1.9979    0.0227    1.1620 C   0  0  0  0  0  4           0  0  0
   -2.0552    0.0092   -1.1749 C   0  0  0  0  0  4           0  0  0
   -4.0268    0.0602    2.6966 C   0  0  0  0  0  4           0  0  0
   -0.6626    0.0120   -1.2221 C   0  0  0  0  0  4           0  0  0
   -6.7685    0.1458    3.3797 C   0  0  0  0  0  4           0  0  0
   -4.4582    0.6816    3.8780 C   0  0  0  0  0  4           0  0  0
   -4.9957   -0.5180    1.8638 C   0  0  0  0  0  4           0  0  0
   -5.8132    0.7248    4.2197 C   0  0  0  0  0  4           0  0  0
   -6.3540   -0.4783    2.1995 C   0  0  0  0  0  4           0  0  0
   -8.1843    0.2121    3.7815 C   0  0  0  0  0  4           0  0  0
    0.0530    0.0406   -2.4924 C   0  0  0  0  0  4           0  0  0
    1.9722    0.0000    1.3021 C   0  0  0  0  0  4           0  0  0
    3.4954    0.0000    1.1835 C   0  0  2  0  0  4           0  0  0
    4.1669    0.0000    2.5664 C   0  0  0  0  0  4           0  0  0
    3.9950    1.1893    0.3469 C   0  0  0  0  0  4           0  0  0
    5.6898    0.0077    2.4523 C   0  0  0  0  0  4           0  0  0
    5.5185    1.1970    0.2342 C   0  0  0  0  0  4           0  0  0
    6.1829    1.1781    1.6074 C   0  0  0  0  0  4           0  0  0
  1  9  1  0     0  0
  1 21  1  0     0  0
  2 19  2  0     0  0
  3 20  2  0     0  0
  4 19  1  0     0  0
  5  9  2  0     0  0
  5 10  1  0     0  0
  6 10  2  0     0  0
  6 11  1  0     0  0
  7 10  1  0     0  0
  7 12  1  0     0  0
  8 11  1  0     0  0
  9 13  1  0     0  0
 11 13  2  0     0  0
 12 15  2  0     0  0
 12 16  1  0     0  0
 13 20  1  0     0  0
 14 17  2  0     0  0
 14 18  1  0     0  0
 14 19  1  0     0  0
 15 17  1  0     0  0
 16 18  2  0     0  0
 21 22  1  0     0  0
 22 23  1  0     0  0
 22 24  1  0     0  0
 23 25  1  0     0  0
 24 26  1  0     0  0
 25 27  1  0     0  0
 26 27  1  0     0  0
M  END
> <Compound >
8

> <standard_type>
pIC50

> <# Confs.>
25

> <canonical_smiles>
NC1=C(C([H])=O)C(OCC2CCCCC2)=NC(NC3=CC=C(C(O)=O)C=C3)=N1

> <standard_relation>
=

> <predicted_activity_value>
6.3810110796350665

> <actual_activity_value>
6.214670164989233

> <Publication ID>
nan

> <standard_units>
nM

> hash
15825024621968746168

$$$$
8_
XXILIB    08252103513D 0   0.00000     0.00000

 27 29  0     1  0            999 V2000
    1.3875    0.0000    0.0000 O   0  0  0  0  0  2           0  0  0
   -1.3956    0.6569    8.6708 O   0  0  0  0  0  2           0  0  0
   -0.4328   -0.4765   -3.4890 O   0  0  0  0  0  2           0  0  0
    0.4044   -0.5214    7.9164 O   0  0  0  0  0  2           0  0  0
   -0.6499    0.0000    1.1864 N   0  0  0  0  0  3           0  0  0
   -2.7122    0.0342    0.0119 N   0  0  0  0  0  3           0  0  0
   -2.6631    0.0365    2.3947 N   0  0  0  0  0  3           0  0  0
   -2.8329    0.0396   -2.3297 N   0  0  0  0  0  3           0  0  0
    0.0000    0.0000    0.0000 C   0  0  0  0  0  4           0  0  0
   -1.9979    0.0227    1.1620 C   0  0  0  0  0  4           0  0  0
   -2.0552    0.0092   -1.1749 C   0  0  0  0  0  4           0  0  0
   -2.1670    0.0309    3.7005 C   0  0  0  0  0  4           0  0  0
   -0.6626    0.0120   -1.2221 C   0  0  0  0  0  4           0  0  0
   -1.2280    0.0661    6.3666 C   0  0  0  0  0  4           0  0  0
   -2.9027    0.6572    4.7177 C   0  0  0  0  0  4           0  0  0
   -0.9512   -0.5773    4.0449 C   0  0  0  0  0  4           0  0  0
   -2.4409    0.6776    6.0371 C   0  0  0  0  0  4           0  0  0
   -0.4828   -0.5609    5.3639 C   0  0  0  0  0  4           0  0  0
   -0.7789    0.1156    7.7689 C   0  0  0  0  0  4           0  0  0
    0.0530    0.0406   -2.4924 C   0  0  0  0  0  4           0  0  0
    1.9722    0.0000    1.3021 C   0  0  0  0  0  4           0  0  0
    3.4954    0.0000    1.1835 C   0  0  2  0  0  4           0  0  0
    4.1669    0.0000    2.5664 C   0  0  0  0  0  4           0  0  0
    3.9950    1.1893    0.3469 C   0  0  0  0  0  4           0  0  0
    5.6898    0.0077    2.4523 C   0  0  0  0  0  4           0  0  0
    5.5185    1.1970    0.2342 C   0  0  0  0  0  4           0  0  0
    6.1829    1.1781    1.6074 C   0  0  0  0  0  4           0  0  0
  1  9  1  0     0  0
  1 21  1  0     0  0
  2 19  2  0     0  0
  3 20  2  0     0  0
  4 19  1  0     0  0
  5  9  2  0     0  0
  5 10  1  0     0  0
  6 10  2  0     0  0
  6 11  1  0     0  0
  7 10  1  0     0  0
  7 12  1  0     0  0
  8 11  1  0     0  0
  9 13  1  0     0  0
 11 13  2  0     0  0
 12 15  2  0     0  0
 12 16  1  0     0  0
 13 20  1  0     0  0
 14 17  2  0     0  0
 14 18  1  0     0  0
 14 19  1  0     0  0
 15 17  1  0     0  0
 16 18  2  0     0  0
 21 22  1  0     0  0
 22 23  1  0     0  0
 22 24  1  0     0  0
 23 25  1  0     0  0
 24 26  1  0     0  0
 25 27  1  0     0  0
 26 27  1  0     0  0
M  END
> <Compound >
8

> <standard_type>
pIC50

> <# Confs.>
25

> <canonical_smiles>
NC1=C(C([H])=O)C(OCC2CCCCC2)=NC(NC3=CC=C(C(O)=O)C=C3)=N1

> <standard_relation>
=

> <predicted_activity_value>
6.3810110796350665

> <actual_activity_value>
6.214670164989233

> <Publication ID>
nan

> <standard_units>
nM

> hash
15825024621968746168

$$$$
8_
XXILIB    08252103513D 0   0.00000     0.00000

 27 29  0     1  0            999 V2000
    1.3875    0.0000    0.0000 O   0  0  0  0  0  2           0  0  0
   -1.3956    0.6569    8.6708 O   0  0  0  0  0  2           0  0  0
   -0.4328   -0.4765   -3.4890 O   0  0  0  0  0  2           0  0  0
    0.4044   -0.5214    7.9164 O   0  0  0  0  0  2           0  0  0
   -0.6499    0.0000    1.1864 N   0  0  0  0  0  3           0  0  0
   -2.7122    0.0342    0.0119 N   0  0  0  0  0  3           0  0  0
   -2.6631    0.0365    2.3947 N   0  0  0  0  0  3           0  0  0
   -2.8329    0.0396   -2.3297 N   0  0  0  0  0  3           0  0  0
    0.0000    0.0000    0.0000 C   0  0  0  0  0  4           0  0  0
   -1.9979    0.0227    1.1620 C   0  0  0  0  0  4           0  0  0
   -2.0552    0.0092   -1.1749 C   0  0  0  0  0  4           0  0  0
   -2.1670    0.0309    3.7005 C   0  0  0  0  0  4           0  0  0
   -0.6626    0.0120   -1.2221 C   0  0  0  0  0  4           0  0  0
   -1.2280    0.0661    6.3666 C   0  0  0  0  0  4           0  0  0
   -2.9027    0.6572    4.7177 C   0  0  0  0  0  4           0  0  0
   -0.9512   -0.5773    4.0449 C   0  0  0  0  0  4           0  0  0
   -2.4409    0.6776    6.0371 C   0  0  0  0  0  4           0  0  0
   -0.4828   -0.5609    5.3639 C   0  0  0  0  0  4           0  0  0
   -0.7789    0.1156    7.7689 C   0  0  0  0  0  4           0  0  0
    0.0530    0.0406   -2.4924 C   0  0  0  0  0  4           0  0  0
    1.9722    0.0000    1.3021 C   0  0  0  0  0  4           0  0  0
    3.4954    0.0000    1.1835 C   0  0  2  0  0  4           0  0  0
    4.0002    1.2392    0.4266 C   0  0  0  0  0  4           0  0  0
    4.0077   -1.2833    0.5094 C   0  0  0  0  0  4           0  0  0
    5.5220    1.2392    0.2990 C   0  0  0  0  0  4           0  0  0
    5.5300   -1.2820    0.3811 C   0  0  0  0  0  4           0  0  0
    6.0302   -0.0423   -0.3539 C   0  0  0  0  0  4           0  0  0
  1  9  1  0     0  0
  1 21  1  0     0  0
  2 19  2  0     0  0
  3 20  2  0     0  0
  4 19  1  0     0  0
  5  9  2  0     0  0
  5 10  1  0     0  0
  6 10  2  0     0  0
  6 11  1  0     0  0
  7 10  1  0     0  0
  7 12  1  0     0  0
  8 11  1  0     0  0
  9 13  1  0     0  0
 11 13  2  0     0  0
 12 15  2  0     0  0
 12 16  1  0     0  0
 13 20  1  0     0  0
 14 17  2  0     0  0
 14 18  1  0     0  0
 14 19  1  0     0  0
 15 17  1  0     0  0
 16 18  2  0     0  0
 21 22  1  0     0  0
 22 23  1  0     0  0
 22 24  1  0     0  0
 23 25  1  0     0  0
 24 26  1  0     0  0
 25 27  1  0     0  0
 26 27  1  0     0  0
M  END
> <Compound >
8

> <standard_type>
pIC50

> <# Confs.>
25

> <canonical_smiles>
NC1=C(C([H])=O)C(OCC2CCCCC2)=NC(NC3=CC=C(C(O)=O)C=C3)=N1

> <standard_relation>
=

> <predicted_activity_value>
6.3810110796350665

> <actual_activity_value>
6.214670164989233

> <Publication ID>
nan

> <standard_units>
nM

> hash
15825024621968746168

$$$$
8_
XXILIB    08252103513D 0   0.00000     0.00000

 27 29  0     1  0            999 V2000
    1.3875    0.0000    0.0000 O   0  0  0  0  0  2           0  0  0
   -1.4320   -0.5703    8.6793 O   0  0  0  0  0  2           0  0  0
   -0.4328   -0.4765   -3.4890 O   0  0  0  0  0  2           0  0  0
    0.4137    0.5299    7.9174 O   0  0  0  0  0  2           0  0  0
   -0.6499    0.0000    1.1864 N   0  0  0  0  0  3           0  0  0
   -2.7122    0.0342    0.0119 N   0  0  0  0  0  3           0  0  0
   -2.6631    0.0365    2.3947 N   0  0  0  0  0  3           0  0  0
   -2.8329    0.0396   -2.3297 N   0  0  0  0  0  3           0  0  0
    0.0000    0.0000    0.0000 C   0  0  0  0  0  4           0  0  0
   -1.9979    0.0227    1.1620 C   0  0  0  0  0  4           0  0  0
   -2.0552    0.0092   -1.1749 C   0  0  0  0  0  4           0  0  0
   -2.1670    0.0309    3.7005 C   0  0  0  0  0  4           0  0  0
   -0.6626    0.0120   -1.2221 C   0  0  0  0  0  4           0  0  0
   -1.2334   -0.0171    6.3683 C   0  0  0  0  0  4           0  0  0
   -2.9233   -0.5658    4.7203 C   0  0  0  0  0  4           0  0  0
   -0.9336    0.6036    4.0433 C   0  0  0  0  0  4           0  0  0
   -2.4654   -0.5903    6.0410 C   0  0  0  0  0  4           0  0  0
   -0.4688    0.5825    5.3634 C   0  0  0  0  0  4           0  0  0
   -0.7926   -0.0631    7.7733 C   0  0  0  0  0  4           0  0  0
    0.0530    0.0406   -2.4924 C   0  0  0  0  0  4           0  0  0
    1.9722    0.0000    1.3021 C   0  0  0  0  0  4           0  0  0
    3.4954    0.0000    1.1835 C   0  0  2  0  0  4           0  0  0
    4.0002   -1.2392    0.4266 C   0  0  0  0  0  4           0  0  0
    4.1676    0.0941    2.5630 C   0  0  0  0  0  4           0  0  0
    5.5231   -1.2470    0.3124 C   0  0  0  0  0  4           0  0  0
    5.6910    0.0850    2.4481 C   0  0  0  0  0  4           0  0  0
    6.1886   -1.1358    1.6804 C   0  0  0  0  0  4           0  0  0
  1  9  1  0     0  0
  1 21  1  0     0  0
  2 19  2  0     0  0
  3 20  2  0     0  0
  4 19  1  0     0  0
  5  9  2  0     0  0
  5 10  1  0     0  0
  6 10  2  0     0  0
  6 11  1  0     0  0
  7 10  1  0     0  0
  7 12  1  0     0  0
  8 11  1  0     0  0
  9 13  1  0     0  0
 11 13  2  0     0  0
 12 15  2  0     0  0
 12 16  1  0     0  0
 13 20  1  0     0  0
 14 17  2  0     0  0
 14 18  1  0     0  0
 14 19  1  0     0  0
 15 17  1  0     0  0
 16 18  2  0     0  0
 21 22  1  0     0  0
 22 23  1  0     0  0
 22 24  1  0     0  0
 23 25  1  0     0  0
 24 26  1  0     0  0
 25 27  1  0     0  0
 26 27  1  0     0  0
M  END
> <Compound >
8

> <standard_type>
pIC50

> <# Confs.>
25

> <canonical_smiles>
NC1=C(C([H])=O)C(OCC2CCCCC2)=NC(NC3=CC=C(C(O)=O)C=C3)=N1

> <standard_relation>
=

> <predicted_activity_value>
6.3810110796350665

> <actual_activity_value>
6.214670164989233

> <Publication ID>
nan

> <standard_units>
nM

> hash
15825024621968746168

$$$$
8_
XXILIB    08252103513D 0   0.00000     0.00000

 27 29  0     1  0            999 V2000
    1.3875    0.0000    0.0000 O   0  0  0  0  0  2           0  0  0
   -1.4320   -0.5703    8.6793 O   0  0  0  0  0  2           0  0  0
   -0.4328   -0.4765   -3.4890 O   0  0  0  0  0  2           0  0  0
    0.4137    0.5299    7.9174 O   0  0  0  0  0  2           0  0  0
   -0.6499    0.0000    1.1864 N   0  0  0  0  0  3           0  0  0
   -2.7122    0.0342    0.0119 N   0  0  0  0  0  3           0  0  0
   -2.6631    0.0365    2.3947 N   0  0  0  0  0  3           0  0  0
   -2.8329    0.0396   -2.3297 N   0  0  0  0  0  3           0  0  0
    0.0000    0.0000    0.0000 C   0  0  0  0  0  4           0  0  0
   -1.9979    0.0227    1.1620 C   0  0  0  0  0  4           0  0  0
   -2.0552    0.0092   -1.1749 C   0  0  0  0  0  4           0  0  0
   -2.1670    0.0309    3.7005 C   0  0  0  0  0  4           0  0  0
   -0.6626    0.0120   -1.2221 C   0  0  0  0  0  4           0  0  0
   -1.2334   -0.0171    6.3683 C   0  0  0  0  0  4           0  0  0
   -2.9233   -0.5658    4.7203 C   0  0  0  0  0  4           0  0  0
   -0.9336    0.6036    4.0433 C   0  0  0  0  0  4           0  0  0
   -2.4654   -0.5903    6.0410 C   0  0  0  0  0  4           0  0  0
   -0.4688    0.5825    5.3634 C   0  0  0  0  0  4           0  0  0
   -0.7926   -0.0631    7.7733 C   0  0  0  0  0  4           0  0  0
    0.0530    0.0406   -2.4924 C   0  0  0  0  0  4           0  0  0
    1.9722    0.0000    1.3021 C   0  0  0  0  0  4           0  0  0
    3.4954    0.0000    1.1835 C   0  0  2  0  0  4           0  0  0
    4.1669    0.0000    2.5664 C   0  0  0  0  0  4           0  0  0
    3.9950    1.1893    0.3469 C   0  0  0  0  0  4           0  0  0
    5.6898    0.0077    2.4523 C   0  0  0  0  0  4           0  0  0
    5.5185    1.1970    0.2342 C   0  0  0  0  0  4           0  0  0
    6.1829    1.1781    1.6074 C   0  0  0  0  0  4           0  0  0
  1  9  1  0     0  0
  1 21  1  0     0  0
  2 19  2  0     0  0
  3 20  2  0     0  0
  4 19  1  0     0  0
  5  9  2  0     0  0
  5 10  1  0     0  0
  6 10  2  0     0  0
  6 11  1  0     0  0
  7 10  1  0     0  0
  7 12  1  0     0  0
  8 11  1  0     0  0
  9 13  1  0     0  0
 11 13  2  0     0  0
 12 15  2  0     0  0
 12 16  1  0     0  0
 13 20  1  0     0  0
 14 17  2  0     0  0
 14 18  1  0     0  0
 14 19  1  0     0  0
 15 17  1  0     0  0
 16 18  2  0     0  0
 21 22  1  0     0  0
 22 23  1  0     0  0
 22 24  1  0     0  0
 23 25  1  0     0  0
 24 26  1  0     0  0
 25 27  1  0     0  0
 26 27  1  0     0  0
M  END
> <Compound >
8

> <standard_type>
pIC50

> <# Confs.>
25

> <canonical_smiles>
NC1=C(C([H])=O)C(OCC2CCCCC2)=NC(NC3=CC=C(C(O)=O)C=C3)=N1

> <standard_relation>
=

> <predicted_activity_value>
6.3810110796350665

> <actual_activity_value>
6.214670164989233

> <Publication ID>
nan

> <standard_units>
nM

> hash
15825024621968746168

$$$$
8_
XXILIB    08252103513D 0   0.00000     0.00000

 27 29  0     1  0            999 V2000
    1.3875    0.0000    0.0000 O   0  0  0  0  0  2           0  0  0
   -1.4320   -0.5703    8.6793 O   0  0  0  0  0  2           0  0  0
   -0.4328   -0.4765   -3.4890 O   0  0  0  0  0  2           0  0  0
    0.4137    0.5299    7.9174 O   0  0  0  0  0  2           0  0  0
   -0.6499    0.0000    1.1864 N   0  0  0  0  0  3           0  0  0
   -2.7122    0.0342    0.0119 N   0  0  0  0  0  3           0  0  0
   -2.6631    0.0365    2.3947 N   0  0  0  0  0  3           0  0  0
   -2.8329    0.0396   -2.3297 N   0  0  0  0  0  3           0  0  0
    0.0000    0.0000    0.0000 C   0  0  0  0  0  4           0  0  0
   -1.9979    0.0227    1.1620 C   0  0  0  0  0  4           0  0  0
   -2.0552    0.0092   -1.1749 C   0  0  0  0  0  4           0  0  0
   -2.1670    0.0309    3.7005 C   0  0  0  0  0  4           0  0  0
   -0.6626    0.0120   -1.2221 C   0  0  0  0  0  4           0  0  0
   -1.2334   -0.0171    6.3683 C   0  0  0  0  0  4           0  0  0
   -2.9233   -0.5658    4.7203 C   0  0  0  0  0  4           0  0  0
   -0.9336    0.6036    4.0433 C   0  0  0  0  0  4           0  0  0
   -2.4654   -0.5903    6.0410 C   0  0  0  0  0  4           0  0  0
   -0.4688    0.5825    5.3634 C   0  0  0  0  0  4           0  0  0
   -0.7926   -0.0631    7.7733 C   0  0  0  0  0  4           0  0  0
    0.0530    0.0406   -2.4924 C   0  0  0  0  0  4           0  0  0
    1.9722    0.0000    1.3021 C   0  0  0  0  0  4           0  0  0
    3.4954    0.0000    1.1835 C   0  0  2  0  0  4           0  0  0
    4.0002    1.2392    0.4266 C   0  0  0  0  0  4           0  0  0
    4.0077   -1.2833    0.5094 C   0  0  0  0  0  4           0  0  0
    5.5220    1.2392    0.2990 C   0  0  0  0  0  4           0  0  0
    5.5300   -1.2820    0.3811 C   0  0  0  0  0  4           0  0  0
    6.0302   -0.0423   -0.3539 C   0  0  0  0  0  4           0  0  0
  1  9  1  0     0  0
  1 21  1  0     0  0
  2 19  2  0     0  0
  3 20  2  0     0  0
  4 19  1  0     0  0
  5  9  2  0     0  0
  5 10  1  0     0  0
  6 10  2  0     0  0
  6 11  1  0     0  0
  7 10  1  0     0  0
  7 12  1  0     0  0
  8 11  1  0     0  0
  9 13  1  0     0  0
 11 13  2  0     0  0
 12 15  2  0     0  0
 12 16  1  0     0  0
 13 20  1  0     0  0
 14 17  2  0     0  0
 14 18  1  0     0  0
 14 19  1  0     0  0
 15 17  1  0     0  0
 16 18  2  0     0  0
 21 22  1  0     0  0
 22 23  1  0     0  0
 22 24  1  0     0  0
 23 25  1  0     0  0
 24 26  1  0     0  0
 25 27  1  0     0  0
 26 27  1  0     0  0
M  END
> <Compound >
8

> <standard_type>
pIC50

> <# Confs.>
25

> <canonical_smiles>
NC1=C(C([H])=O)C(OCC2CCCCC2)=NC(NC3=CC=C(C(O)=O)C=C3)=N1

> <standard_relation>
=

> <predicted_activity_value>
6.3810110796350665

> <actual_activity_value>
6.214670164989233

> <Publication ID>
nan

> <standard_units>
nM

> hash
15825024621968746168

$$$$
8_
XXILIB    08252103513D 0   0.00000     0.00000

 27 29  0     1  0            999 V2000
    1.3875    0.0000    0.0000 O   0  0  0  0  0  2           0  0  0
   -1.3956    0.6569    8.6708 O   0  0  0  0  0  2           0  0  0
   -0.4328   -0.4765   -3.4890 O   0  0  0  0  0  2           0  0  0
    0.4044   -0.5214    7.9164 O   0  0  0  0  0  2           0  0  0
   -0.6499    0.0000    1.1864 N   0  0  0  0  0  3           0  0  0
   -2.7122    0.0342    0.0119 N   0  0  0  0  0  3           0  0  0
   -2.6631    0.0365    2.3947 N   0  0  0  0  0  3           0  0  0
   -2.8329    0.0396   -2.3297 N   0  0  0  0  0  3           0  0  0
    0.0000    0.0000    0.0000 C   0  0  0  0  0  4           0  0  0
   -1.9979    0.0227    1.1620 C   0  0  0  0  0  4           0  0  0
   -2.0552    0.0092   -1.1749 C   0  0  0  0  0  4           0  0  0
   -2.1670    0.0309    3.7005 C   0  0  0  0  0  4           0  0  0
   -0.6626    0.0120   -1.2221 C   0  0  0  0  0  4           0  0  0
   -1.2280    0.0661    6.3666 C   0  0  0  0  0  4           0  0  0
   -2.9027    0.6572    4.7177 C   0  0  0  0  0  4           0  0  0
   -0.9512   -0.5773    4.0449 C   0  0  0  0  0  4           0  0  0
   -2.4409    0.6776    6.0371 C   0  0  0  0  0  4           0  0  0
   -0.4828   -0.5609    5.3639 C   0  0  0  0  0  4           0  0  0
   -0.7789    0.1156    7.7689 C   0  0  0  0  0  4           0  0  0
    0.0530    0.0406   -2.4924 C   0  0  0  0  0  4           0  0  0
    1.9722    0.0000    1.3021 C   0  0  0  0  0  4           0  0  0
    3.4954    0.0000    1.1835 C   0  0  2  0  0  4           0  0  0
    4.1636   -0.0000    2.5664 C   0  0  0  0  0  4           0  0  0
    4.0207   -1.1718    0.3347 C   0  0  0  0  0  4           0  0  0
    4.0455   -1.3447    3.2818 C   0  0  0  0  0  4           0  0  0
    3.9094   -2.5192    1.0464 C   0  0  0  0  0  4           0  0  0
    4.5734   -2.4873    2.4197 C   0  0  0  0  0  4           0  0  0
  1  9  1  0     0  0
  1 21  1  0     0  0
  2 19  2  0     0  0
  3 20  2  0     0  0
  4 19  1  0     0  0
  5  9  2  0     0  0
  5 10  1  0     0  0
  6 10  2  0     0  0
  6 11  1  0     0  0
  7 10  1  0     0  0
  7 12  1  0     0  0
  8 11  1  0     0  0
  9 13  1  0     0  0
 11 13  2  0     0  0
 12 15  2  0     0  0
 12 16  1  0     0  0
 13 20  1  0     0  0
 14 17  2  0     0  0
 14 18  1  0     0  0
 14 19  1  0     0  0
 15 17  1  0     0  0
 16 18  2  0     0  0
 21 22  1  0     0  0
 22 23  1  0     0  0
 22 24  1  0     0  0
 23 25  1  0     0  0
 24 26  1  0     0  0
 25 27  1  0     0  0
 26 27  1  0     0  0
M  END
> <Compound >
8

> <standard_type>
pIC50

> <# Confs.>
25

> <canonical_smiles>
NC1=C(C([H])=O)C(OCC2CCCCC2)=NC(NC3=CC=C(C(O)=O)C=C3)=N1

> <standard_relation>
=

> <predicted_activity_value>
6.3810110796350665

> <actual_activity_value>
6.214670164989233

> <Publication ID>
nan

> <standard_units>
nM

> hash
15825024621968746168

$$$$
8_
XXILIB    08252103513D 0   0.00000     0.00000

 27 29  0     1  0            999 V2000
    1.3875    0.0000    0.0000 O   0  0  0  0  0  2           0  0  0
   -9.0960    0.5258    3.1202 O   0  0  0  0  0  2           0  0  0
   -0.4328   -0.4765   -3.4890 O   0  0  0  0  0  2           0  0  0
   -8.3471   -0.6141    4.9471 O   0  0  0  0  0  2           0  0  0
   -0.6499    0.0000    1.1864 N   0  0  0  0  0  3           0  0  0
   -2.7122    0.0342    0.0119 N   0  0  0  0  0  3           0  0  0
   -2.6631    0.0365    2.3947 N   0  0  0  0  0  3           0  0  0
   -2.8329    0.0396   -2.3297 N   0  0  0  0  0  3           0  0  0
    0.0000    0.0000    0.0000 C   0  0  0  0  0  4           0  0  0
   -1.9979    0.0227    1.1620 C   0  0  0  0  0  4           0  0  0
   -2.0552    0.0092   -1.1749 C   0  0  0  0  0  4           0  0  0
   -4.0268    0.0602    2.6966 C   0  0  0  0  0  4           0  0  0
   -0.6626    0.0120   -1.2221 C   0  0  0  0  0  4           0  0  0
   -6.7708    0.0625    3.3757 C   0  0  0  0  0  4           0  0  0
   -4.4788   -0.5414    3.8806 C   0  0  0  0  0  4           0  0  0
   -4.9763    0.6628    1.8589 C   0  0  0  0  0  4           0  0  0
   -5.8353   -0.5432    4.2191 C   0  0  0  0  0  4           0  0  0
   -6.3360    0.6650    2.1916 C   0  0  0  0  0  4           0  0  0
   -8.1898    0.0333    3.7707 C   0  0  0  0  0  4           0  0  0
    0.0530    0.0406   -2.4924 C   0  0  0  0  0  4           0  0  0
    1.9722    0.0000    1.3021 C   0  0  0  0  0  4           0  0  0
    3.4954    0.0000    1.1835 C   0  0  2  0  0  4           0  0  0
    4.0002   -1.2392    0.4266 C   0  0  0  0  0  4           0  0  0
    4.1676    0.0941    2.5630 C   0  0  0  0  0  4           0  0  0
    5.5231   -1.2470    0.3124 C   0  0  0  0  0  4           0  0  0
    5.6910    0.0850    2.4481 C   0  0  0  0  0  4           0  0  0
    6.1886   -1.1358    1.6804 C   0  0  0  0  0  4           0  0  0
  1  9  1  0     0  0
  1 21  1  0     0  0
  2 19  2  0     0  0
  3 20  2  0     0  0
  4 19  1  0     0  0
  5  9  2  0     0  0
  5 10  1  0     0  0
  6 10  2  0     0  0
  6 11  1  0     0  0
  7 10  1  0     0  0
  7 12  1  0     0  0
  8 11  1  0     0  0
  9 13  1  0     0  0
 11 13  2  0     0  0
 12 15  2  0     0  0
 12 16  1  0     0  0
 13 20  1  0     0  0
 14 17  2  0     0  0
 14 18  1  0     0  0
 14 19  1  0     0  0
 15 17  1  0     0  0
 16 18  2  0     0  0
 21 22  1  0     0  0
 22 23  1  0     0  0
 22 24  1  0     0  0
 23 25  1  0     0  0
 24 26  1  0     0  0
 25 27  1  0     0  0
 26 27  1  0     0  0
M  END
> <Compound >
8

> <standard_type>
pIC50

> <# Confs.>
25

> <canonical_smiles>
NC1=C(C([H])=O)C(OCC2CCCCC2)=NC(NC3=CC=C(C(O)=O)C=C3)=N1

> <standard_relation>
=

> <predicted_activity_value>
6.3810110796350665

> <actual_activity_value>
6.214670164989233

> <Publication ID>
nan

> <standard_units>
nM

> hash
15825024621968746168

$$$$
8_
XXILIB    08252103513D 0   0.00000     0.00000

 27 29  0     1  0            999 V2000
    1.3875    0.0000    0.0000 O   0  0  0  0  0  2           0  0  0
   -9.0960    0.5258    3.1202 O   0  0  0  0  0  2           0  0  0
   -0.4328   -0.4765   -3.4890 O   0  0  0  0  0  2           0  0  0
   -8.3471   -0.6141    4.9471 O   0  0  0  0  0  2           0  0  0
   -0.6499    0.0000    1.1864 N   0  0  0  0  0  3           0  0  0
   -2.7122    0.0342    0.0119 N   0  0  0  0  0  3           0  0  0
   -2.6631    0.0365    2.3947 N   0  0  0  0  0  3           0  0  0
   -2.8329    0.0396   -2.3297 N   0  0  0  0  0  3           0  0  0
    0.0000    0.0000    0.0000 C   0  0  0  0  0  4           0  0  0
   -1.9979    0.0227    1.1620 C   0  0  0  0  0  4           0  0  0
   -2.0552    0.0092   -1.1749 C   0  0  0  0  0  4           0  0  0
   -4.0268    0.0602    2.6966 C   0  0  0  0  0  4           0  0  0
   -0.6626    0.0120   -1.2221 C   0  0  0  0  0  4           0  0  0
   -6.7708    0.0625    3.3757 C   0  0  0  0  0  4           0  0  0
   -4.4788   -0.5414    3.8806 C   0  0  0  0  0  4           0  0  0
   -4.9763    0.6628    1.8589 C   0  0  0  0  0  4           0  0  0
   -5.8353   -0.5432    4.2191 C   0  0  0  0  0  4           0  0  0
   -6.3360    0.6650    2.1916 C   0  0  0  0  0  4           0  0  0
   -8.1898    0.0333    3.7707 C   0  0  0  0  0  4           0  0  0
    0.0530    0.0406   -2.4924 C   0  0  0  0  0  4           0  0  0
    1.9722    0.0000    1.3021 C   0  0  0  0  0  4           0  0  0
    3.4954    0.0000    1.1835 C   0  0  2  0  0  4           0  0  0
    4.0002    1.2392    0.4266 C   0  0  0  0  0  4           0  0  0
    4.0077   -1.2833    0.5094 C   0  0  0  0  0  4           0  0  0
    5.5220    1.2392    0.2990 C   0  0  0  0  0  4           0  0  0
    5.5300   -1.2820    0.3811 C   0  0  0  0  0  4           0  0  0
    6.0302   -0.0423   -0.3539 C   0  0  0  0  0  4           0  0  0
  1  9  1  0     0  0
  1 21  1  0     0  0
  2 19  2  0     0  0
  3 20  2  0     0  0
  4 19  1  0     0  0
  5  9  2  0     0  0
  5 10  1  0     0  0
  6 10  2  0     0  0
  6 11  1  0     0  0
  7 10  1  0     0  0
  7 12  1  0     0  0
  8 11  1  0     0  0
  9 13  1  0     0  0
 11 13  2  0     0  0
 12 15  2  0     0  0
 12 16  1  0     0  0
 13 20  1  0     0  0
 14 17  2  0     0  0
 14 18  1  0     0  0
 14 19  1  0     0  0
 15 17  1  0     0  0
 16 18  2  0     0  0
 21 22  1  0     0  0
 22 23  1  0     0  0
 22 24  1  0     0  0
 23 25  1  0     0  0
 24 26  1  0     0  0
 25 27  1  0     0  0
 26 27  1  0     0  0
M  END
> <Compound >
8

> <standard_type>
pIC50

> <# Confs.>
25

> <canonical_smiles>
NC1=C(C([H])=O)C(OCC2CCCCC2)=NC(NC3=CC=C(C(O)=O)C=C3)=N1

> <standard_relation>
=

> <predicted_activity_value>
6.3810110796350665

> <actual_activity_value>
6.214670164989233

> <Publication ID>
nan

> <standard_units>
nM

> hash
15825024621968746168

$$$$
8_
XXILIB    08252103513D 0   0.00000     0.00000

 27 29  0     1  0            999 V2000
    1.3875    0.0000    0.0000 O   0  0  0  0  0  2           0  0  0
   -1.3956    0.6569    8.6708 O   0  0  0  0  0  2           0  0  0
   -0.4328   -0.4765   -3.4890 O   0  0  0  0  0  2           0  0  0
    0.4044   -0.5214    7.9164 O   0  0  0  0  0  2           0  0  0
   -0.6499    0.0000    1.1864 N   0  0  0  0  0  3           0  0  0
   -2.7122    0.0342    0.0119 N   0  0  0  0  0  3           0  0  0
   -2.6631    0.0365    2.3947 N   0  0  0  0  0  3           0  0  0
   -2.8329    0.0396   -2.3297 N   0  0  0  0  0  3           0  0  0
    0.0000    0.0000    0.0000 C   0  0  0  0  0  4           0  0  0
   -1.9979    0.0227    1.1620 C   0  0  0  0  0  4           0  0  0
   -2.0552    0.0092   -1.1749 C   0  0  0  0  0  4           0  0  0
   -2.1670    0.0309    3.7005 C   0  0  0  0  0  4           0  0  0
   -0.6626    0.0120   -1.2221 C   0  0  0  0  0  4           0  0  0
   -1.2280    0.0661    6.3666 C   0  0  0  0  0  4           0  0  0
   -2.9027    0.6572    4.7177 C   0  0  0  0  0  4           0  0  0
   -0.9512   -0.5773    4.0449 C   0  0  0  0  0  4           0  0  0
   -2.4409    0.6776    6.0371 C   0  0  0  0  0  4           0  0  0
   -0.4828   -0.5609    5.3639 C   0  0  0  0  0  4           0  0  0
   -0.7789    0.1156    7.7689 C   0  0  0  0  0  4           0  0  0
    0.0530    0.0406   -2.4924 C   0  0  0  0  0  4           0  0  0
    1.9722    0.0000    1.3021 C   0  0  0  0  0  4           0  0  0
    3.4954    0.0000    1.1835 C   0  0  2  0  0  4           0  0  0
    3.9969    1.2389    0.4270 C   0  0  0  0  0  4           0  0  0
    4.1933   -0.1116    2.5509 C   0  0  0  0  0  4           0  0  0
    3.8872    2.5211    1.2505 C   0  0  0  0  0  4           0  0  0
    4.0910    1.1691    3.3778 C   0  0  0  0  0  4           0  0  0
    4.5874    2.3835    2.5989 C   0  0  0  0  0  4           0  0  0
  1  9  1  0     0  0
  1 21  1  0     0  0
  2 19  2  0     0  0
  3 20  2  0     0  0
  4 19  1  0     0  0
  5  9  2  0     0  0
  5 10  1  0     0  0
  6 10  2  0     0  0
  6 11  1  0     0  0
  7 10  1  0     0  0
  7 12  1  0     0  0
  8 11  1  0     0  0
  9 13  1  0     0  0
 11 13  2  0     0  0
 12 15  2  0     0  0
 12 16  1  0     0  0
 13 20  1  0     0  0
 14 17  2  0     0  0
 14 18  1  0     0  0
 14 19  1  0     0  0
 15 17  1  0     0  0
 16 18  2  0     0  0
 21 22  1  0     0  0
 22 23  1  0     0  0
 22 24  1  0     0  0
 23 25  1  0     0  0
 24 26  1  0     0  0
 25 27  1  0     0  0
 26 27  1  0     0  0
M  END
> <Compound >
8

> <standard_type>
pIC50

> <# Confs.>
25

> <canonical_smiles>
NC1=C(C([H])=O)C(OCC2CCCCC2)=NC(NC3=CC=C(C(O)=O)C=C3)=N1

> <standard_relation>
=

> <predicted_activity_value>
6.3810110796350665

> <actual_activity_value>
6.214670164989233

> <Publication ID>
nan

> <standard_units>
nM

> hash
15825024621968746168

$$$$
8_
XXILIB    08252103513D 0   0.00000     0.00000

 27 29  0     1  0            999 V2000
    1.3875    0.0000    0.0000 O   0  0  0  0  0  2           0  0  0
   -8.6101   -0.4865    4.7905 O   0  0  0  0  0  2           0  0  0
   -0.4328   -0.4765   -3.4890 O   0  0  0  0  0  2           0  0  0
   -8.9568    0.6616    2.8517 O   0  0  0  0  0  2           0  0  0
   -0.6499    0.0000    1.1864 N   0  0  0  0  0  3           0  0  0
   -2.7122    0.0342    0.0119 N   0  0  0  0  0  3           0  0  0
   -2.6631    0.0365    2.3947 N   0  0  0  0  0  3           0  0  0
   -2.8329    0.0396   -2.3297 N   0  0  0  0  0  3           0  0  0
    0.0000    0.0000    0.0000 C   0  0  0  0  0  4           0  0  0
   -1.9979    0.0227    1.1620 C   0  0  0  0  0  4           0  0  0
   -2.0552    0.0092   -1.1749 C   0  0  0  0  0  4           0  0  0
   -4.0268    0.0602    2.6966 C   0  0  0  0  0  4           0  0  0
   -0.6626    0.0120   -1.2221 C   0  0  0  0  0  4           0  0  0
   -6.7708    0.0625    3.3757 C   0  0  0  0  0  4           0  0  0
   -4.4788   -0.5414    3.8806 C   0  0  0  0  0  4           0  0  0
   -4.9763    0.6628    1.8589 C   0  0  0  0  0  4           0  0  0
   -5.8353   -0.5432    4.2191 C   0  0  0  0  0  4           0  0  0
   -6.3360    0.6650    2.1916 C   0  0  0  0  0  4           0  0  0
   -8.1898    0.0333    3.7707 C   0  0  0  0  0  4           0  0  0
    0.0530    0.0406   -2.4924 C   0  0  0  0  0  4           0  0  0
    1.9722    0.0000    1.3021 C   0  0  0  0  0  4           0  0  0
    3.4954    0.0000    1.1835 C   0  0  2  0  0  4           0  0  0
    4.1636   -0.0000    2.5664 C   0  0  0  0  0  4           0  0  0
    4.0207   -1.1718    0.3347 C   0  0  0  0  0  4           0  0  0
    4.0455   -1.3447    3.2818 C   0  0  0  0  0  4           0  0  0
    3.9094   -2.5192    1.0464 C   0  0  0  0  0  4           0  0  0
    4.5734   -2.4873    2.4197 C   0  0  0  0  0  4           0  0  0
  1  9  1  0     0  0
  1 21  1  0     0  0
  2 19  2  0     0  0
  3 20  2  0     0  0
  4 19  1  0     0  0
  5  9  2  0     0  0
  5 10  1  0     0  0
  6 10  2  0     0  0
  6 11  1  0     0  0
  7 10  1  0     0  0
  7 12  1  0     0  0
  8 11  1  0     0  0
  9 13  1  0     0  0
 11 13  2  0     0  0
 12 15  2  0     0  0
 12 16  1  0     0  0
 13 20  1  0     0  0
 14 17  2  0     0  0
 14 18  1  0     0  0
 14 19  1  0     0  0
 15 17  1  0     0  0
 16 18  2  0     0  0
 21 22  1  0     0  0
 22 23  1  0     0  0
 22 24  1  0     0  0
 23 25  1  0     0  0
 24 26  1  0     0  0
 25 27  1  0     0  0
 26 27  1  0     0  0
M  END
> <Compound >
8

> <standard_type>
pIC50

> <# Confs.>
25

> <canonical_smiles>
NC1=C(C([H])=O)C(OCC2CCCCC2)=NC(NC3=CC=C(C(O)=O)C=C3)=N1

> <standard_relation>
=

> <predicted_activity_value>
6.3810110796350665

> <actual_activity_value>
6.214670164989233

> <Publication ID>
nan

> <standard_units>
nM

> hash
15825024621968746168

$$$$
8_
XXILIB    08252103513D 0   0.00000     0.00000

 27 29  0     1  0            999 V2000
    1.3875    0.0000    0.0000 O   0  0  0  0  0  2           0  0  0
   -1.4320   -0.5703    8.6793 O   0  0  0  0  0  2           0  0  0
   -0.4328   -0.4765   -3.4890 O   0  0  0  0  0  2           0  0  0
    0.4137    0.5299    7.9174 O   0  0  0  0  0  2           0  0  0
   -0.6499    0.0000    1.1864 N   0  0  0  0  0  3           0  0  0
   -2.7122    0.0342    0.0119 N   0  0  0  0  0  3           0  0  0
   -2.6631    0.0365    2.3947 N   0  0  0  0  0  3           0  0  0
   -2.8329    0.0396   -2.3297 N   0  0  0  0  0  3           0  0  0
    0.0000    0.0000    0.0000 C   0  0  0  0  0  4           0  0  0
   -1.9979    0.0227    1.1620 C   0  0  0  0  0  4           0  0  0
   -2.0552    0.0092   -1.1749 C   0  0  0  0  0  4           0  0  0
   -2.1670    0.0309    3.7005 C   0  0  0  0  0  4           0  0  0
   -0.6626    0.0120   -1.2221 C   0  0  0  0  0  4           0  0  0
   -1.2334   -0.0171    6.3683 C   0  0  0  0  0  4           0  0  0
   -2.9233   -0.5658    4.7203 C   0  0  0  0  0  4           0  0  0
   -0.9336    0.6036    4.0433 C   0  0  0  0  0  4           0  0  0
   -2.4654   -0.5903    6.0410 C   0  0  0  0  0  4           0  0  0
   -0.4688    0.5825    5.3634 C   0  0  0  0  0  4           0  0  0
   -0.7926   -0.0631    7.7733 C   0  0  0  0  0  4           0  0  0
    0.0530    0.0406   -2.4924 C   0  0  0  0  0  4           0  0  0
    1.9722    0.0000    1.3021 C   0  0  0  0  0  4           0  0  0
    3.4954    0.0000    1.1835 C   0  0  2  0  0  4           0  0  0
    3.9969    1.2389    0.4270 C   0  0  0  0  0  4           0  0  0
    4.1933   -0.1116    2.5509 C   0  0  0  0  0  4           0  0  0
    3.8872    2.5211    1.2505 C   0  0  0  0  0  4           0  0  0
    4.0910    1.1691    3.3778 C   0  0  0  0  0  4           0  0  0
    4.5874    2.3835    2.5989 C   0  0  0  0  0  4           0  0  0
  1  9  1  0     0  0
  1 21  1  0     0  0
  2 19  2  0     0  0
  3 20  2  0     0  0
  4 19  1  0     0  0
  5  9  2  0     0  0
  5 10  1  0     0  0
  6 10  2  0     0  0
  6 11  1  0     0  0
  7 10  1  0     0  0
  7 12  1  0     0  0
  8 11  1  0     0  0
  9 13  1  0     0  0
 11 13  2  0     0  0
 12 15  2  0     0  0
 12 16  1  0     0  0
 13 20  1  0     0  0
 14 17  2  0     0  0
 14 18  1  0     0  0
 14 19  1  0     0  0
 15 17  1  0     0  0
 16 18  2  0     0  0
 21 22  1  0     0  0
 22 23  1  0     0  0
 22 24  1  0     0  0
 23 25  1  0     0  0
 24 26  1  0     0  0
 25 27  1  0     0  0
 26 27  1  0     0  0
M  END
> <Compound >
8

> <standard_type>
pIC50

> <# Confs.>
25

> <canonical_smiles>
NC1=C(C([H])=O)C(OCC2CCCCC2)=NC(NC3=CC=C(C(O)=O)C=C3)=N1

> <standard_relation>
=

> <predicted_activity_value>
6.3810110796350665

> <actual_activity_value>
6.214670164989233

> <Publication ID>
nan

> <standard_units>
nM

> hash
15825024621968746168

$$$$
8_
XXILIB    08252103513D 0   0.00000     0.00000

 27 29  0     1  0            999 V2000
    1.3875    0.0000    0.0000 O   0  0  0  0  0  2           0  0  0
   -9.0960    0.5258    3.1202 O   0  0  0  0  0  2           0  0  0
   -0.4328   -0.4765   -3.4890 O   0  0  0  0  0  2           0  0  0
   -8.3471   -0.6141    4.9471 O   0  0  0  0  0  2           0  0  0
   -0.6499    0.0000    1.1864 N   0  0  0  0  0  3           0  0  0
   -2.7122    0.0342    0.0119 N   0  0  0  0  0  3           0  0  0
   -2.6631    0.0365    2.3947 N   0  0  0  0  0  3           0  0  0
   -2.8329    0.0396   -2.3297 N   0  0  0  0  0  3           0  0  0
    0.0000    0.0000    0.0000 C   0  0  0  0  0  4           0  0  0
   -1.9979    0.0227    1.1620 C   0  0  0  0  0  4           0  0  0
   -2.0552    0.0092   -1.1749 C   0  0  0  0  0  4           0  0  0
   -4.0268    0.0602    2.6966 C   0  0  0  0  0  4           0  0  0
   -0.6626    0.0120   -1.2221 C   0  0  0  0  0  4           0  0  0
   -6.7708    0.0625    3.3757 C   0  0  0  0  0  4           0  0  0
   -4.4788   -0.5414    3.8806 C   0  0  0  0  0  4           0  0  0
   -4.9763    0.6628    1.8589 C   0  0  0  0  0  4           0  0  0
   -5.8353   -0.5432    4.2191 C   0  0  0  0  0  4           0  0  0
   -6.3360    0.6650    2.1916 C   0  0  0  0  0  4           0  0  0
   -8.1898    0.0333    3.7707 C   0  0  0  0  0  4           0  0  0
    0.0530    0.0406   -2.4924 C   0  0  0  0  0  4           0  0  0
    1.9722    0.0000    1.3021 C   0  0  0  0  0  4           0  0  0
    3.4954    0.0000    1.1835 C   0  0  2  0  0  4           0  0  0
    4.1669    0.0000    2.5664 C   0  0  0  0  0  4           0  0  0
    3.9950    1.1893    0.3469 C   0  0  0  0  0  4           0  0  0
    5.6898    0.0077    2.4523 C   0  0  0  0  0  4           0  0  0
    5.5185    1.1970    0.2342 C   0  0  0  0  0  4           0  0  0
    6.1829    1.1781    1.6074 C   0  0  0  0  0  4           0  0  0
  1  9  1  0     0  0
  1 21  1  0     0  0
  2 19  2  0     0  0
  3 20  2  0     0  0
  4 19  1  0     0  0
  5  9  2  0     0  0
  5 10  1  0     0  0
  6 10  2  0     0  0
  6 11  1  0     0  0
  7 10  1  0     0  0
  7 12  1  0     0  0
  8 11  1  0     0  0
  9 13  1  0     0  0
 11 13  2  0     0  0
 12 15  2  0     0  0
 12 16  1  0     0  0
 13 20  1  0     0  0
 14 17  2  0     0  0
 14 18  1  0     0  0
 14 19  1  0     0  0
 15 17  1  0     0  0
 16 18  2  0     0  0
 21 22  1  0     0  0
 22 23  1  0     0  0
 22 24  1  0     0  0
 23 25  1  0     0  0
 24 26  1  0     0  0
 25 27  1  0     0  0
 26 27  1  0     0  0
M  END
> <Compound >
8

> <standard_type>
pIC50

> <# Confs.>
25

> <canonical_smiles>
NC1=C(C([H])=O)C(OCC2CCCCC2)=NC(NC3=CC=C(C(O)=O)C=C3)=N1

> <standard_relation>
=

> <predicted_activity_value>
6.3810110796350665

> <actual_activity_value>
6.214670164989233

> <Publication ID>
nan

> <standard_units>
nM

> hash
15825024621968746168

$$$$
8_
XXILIB    08252103513D 0   0.00000     0.00000

 27 29  0     1  0            999 V2000
    1.3875    0.0000    0.0000 O   0  0  0  0  0  2           0  0  0
   -8.6101   -0.4865    4.7905 O   0  0  0  0  0  2           0  0  0
   -0.4328   -0.4765   -3.4890 O   0  0  0  0  0  2           0  0  0
   -8.9568    0.6616    2.8517 O   0  0  0  0  0  2           0  0  0
   -0.6499    0.0000    1.1864 N   0  0  0  0  0  3           0  0  0
   -2.7122    0.0342    0.0119 N   0  0  0  0  0  3           0  0  0
   -2.6631    0.0365    2.3947 N   0  0  0  0  0  3           0  0  0
   -2.8329    0.0396   -2.3297 N   0  0  0  0  0  3           0  0  0
    0.0000    0.0000    0.0000 C   0  0  0  0  0  4           0  0  0
   -1.9979    0.0227    1.1620 C   0  0  0  0  0  4           0  0  0
   -2.0552    0.0092   -1.1749 C   0  0  0  0  0  4           0  0  0
   -4.0268    0.0602    2.6966 C   0  0  0  0  0  4           0  0  0
   -0.6626    0.0120   -1.2221 C   0  0  0  0  0  4           0  0  0
   -6.7708    0.0625    3.3757 C   0  0  0  0  0  4           0  0  0
   -4.4788   -0.5414    3.8806 C   0  0  0  0  0  4           0  0  0
   -4.9763    0.6628    1.8589 C   0  0  0  0  0  4           0  0  0
   -5.8353   -0.5432    4.2191 C   0  0  0  0  0  4           0  0  0
   -6.3360    0.6650    2.1916 C   0  0  0  0  0  4           0  0  0
   -8.1898    0.0333    3.7707 C   0  0  0  0  0  4           0  0  0
    0.0530    0.0406   -2.4924 C   0  0  0  0  0  4           0  0  0
    1.9722    0.0000    1.3021 C   0  0  0  0  0  4           0  0  0
    3.4954    0.0000    1.1835 C   0  0  2  0  0  4           0  0  0
    3.9969    1.2389    0.4270 C   0  0  0  0  0  4           0  0  0
    4.1933   -0.1116    2.5509 C   0  0  0  0  0  4           0  0  0
    3.8872    2.5211    1.2505 C   0  0  0  0  0  4           0  0  0
    4.0910    1.1691    3.3778 C   0  0  0  0  0  4           0  0  0
    4.5874    2.3835    2.5989 C   0  0  0  0  0  4           0  0  0
  1  9  1  0     0  0
  1 21  1  0     0  0
  2 19  2  0     0  0
  3 20  2  0     0  0
  4 19  1  0     0  0
  5  9  2  0     0  0
  5 10  1  0     0  0
  6 10  2  0     0  0
  6 11  1  0     0  0
  7 10  1  0     0  0
  7 12  1  0     0  0
  8 11  1  0     0  0
  9 13  1  0     0  0
 11 13  2  0     0  0
 12 15  2  0     0  0
 12 16  1  0     0  0
 13 20  1  0     0  0
 14 17  2  0     0  0
 14 18  1  0     0  0
 14 19  1  0     0  0
 15 17  1  0     0  0
 16 18  2  0     0  0
 21 22  1  0     0  0
 22 23  1  0     0  0
 22 24  1  0     0  0
 23 25  1  0     0  0
 24 26  1  0     0  0
 25 27  1  0     0  0
 26 27  1  0     0  0
M  END
> <Compound >
8

> <standard_type>
pIC50

> <# Confs.>
25

> <canonical_smiles>
NC1=C(C([H])=O)C(OCC2CCCCC2)=NC(NC3=CC=C(C(O)=O)C=C3)=N1

> <standard_relation>
=

> <predicted_activity_value>
6.3810110796350665

> <actual_activity_value>
6.214670164989233

> <Publication ID>
nan

> <standard_units>
nM

> hash
15825024621968746168

$$$$
8_
XXILIB    08252103513D 0   0.00000     0.00000

 27 29  0     1  0            999 V2000
    1.3875    0.0000    0.0000 O   0  0  0  0  0  2           0  0  0
   -9.1063   -0.2549    3.1345 O   0  0  0  0  0  2           0  0  0
   -0.4328   -0.4765   -3.4890 O   0  0  0  0  0  2           0  0  0
   -8.3183    0.8569    4.9622 O   0  0  0  0  0  2           0  0  0
   -0.6499    0.0000    1.1864 N   0  0  0  0  0  3           0  0  0
   -2.7122    0.0342    0.0119 N   0  0  0  0  0  3           0  0  0
   -2.6631    0.0365    2.3947 N   0  0  0  0  0  3           0  0  0
   -2.8329    0.0396   -2.3297 N   0  0  0  0  0  3           0  0  0
    0.0000    0.0000    0.0000 C   0  0  0  0  0  4           0  0  0
   -1.9979    0.0227    1.1620 C   0  0  0  0  0  4           0  0  0
   -2.0552    0.0092   -1.1749 C   0  0  0  0  0  4           0  0  0
   -4.0268    0.0602    2.6966 C   0  0  0  0  0  4           0  0  0
   -0.6626    0.0120   -1.2221 C   0  0  0  0  0  4           0  0  0
   -6.7685    0.1458    3.3797 C   0  0  0  0  0  4           0  0  0
   -4.4582    0.6816    3.8780 C   0  0  0  0  0  4           0  0  0
   -4.9957   -0.5180    1.8638 C   0  0  0  0  0  4           0  0  0
   -5.8132    0.7248    4.2197 C   0  0  0  0  0  4           0  0  0
   -6.3540   -0.4783    2.1995 C   0  0  0  0  0  4           0  0  0
   -8.1843    0.2121    3.7815 C   0  0  0  0  0  4           0  0  0
    0.0530    0.0406   -2.4924 C   0  0  0  0  0  4           0  0  0
    1.9722    0.0000    1.3021 C   0  0  0  0  0  4           0  0  0
    3.4954    0.0000    1.1835 C   0  0  2  0  0  4           0  0  0
    4.0002   -1.2392    0.4266 C   0  0  0  0  0  4           0  0  0
    4.1676    0.0941    2.5630 C   0  0  0  0  0  4           0  0  0
    5.5231   -1.2470    0.3124 C   0  0  0  0  0  4           0  0  0
    5.6910    0.0850    2.4481 C   0  0  0  0  0  4           0  0  0
    6.1886   -1.1358    1.6804 C   0  0  0  0  0  4           0  0  0
  1  9  1  0     0  0
  1 21  1  0     0  0
  2 19  2  0     0  0
  3 20  2  0     0  0
  4 19  1  0     0  0
  5  9  2  0     0  0
  5 10  1  0     0  0
  6 10  2  0     0  0
  6 11  1  0     0  0
  7 10  1  0     0  0
  7 12  1  0     0  0
  8 11  1  0     0  0
  9 13  1  0     0  0
 11 13  2  0     0  0
 12 15  2  0     0  0
 12 16  1  0     0  0
 13 20  1  0     0  0
 14 17  2  0     0  0
 14 18  1  0     0  0
 14 19  1  0     0  0
 15 17  1  0     0  0
 16 18  2  0     0  0
 21 22  1  0     0  0
 22 23  1  0     0  0
 22 24  1  0     0  0
 23 25  1  0     0  0
 24 26  1  0     0  0
 25 27  1  0     0  0
 26 27  1  0     0  0
M  END
> <Compound >
8

> <standard_type>
pIC50

> <# Confs.>
25

> <canonical_smiles>
NC1=C(C([H])=O)C(OCC2CCCCC2)=NC(NC3=CC=C(C(O)=O)C=C3)=N1

> <standard_relation>
=

> <predicted_activity_value>
6.3810110796350665

> <actual_activity_value>
6.214670164989233

> <Publication ID>
nan

> <standard_units>
nM

> hash
15825024621968746168

$$$$
8_
XXILIB    08252103513D 0   0.00000     0.00000

 27 29  0     1  0            999 V2000
    1.3875    0.0000    0.0000 O   0  0  0  0  0  2           0  0  0
   -9.1063   -0.2549    3.1345 O   0  0  0  0  0  2           0  0  0
   -0.4328   -0.4765   -3.4890 O   0  0  0  0  0  2           0  0  0
   -8.3183    0.8569    4.9622 O   0  0  0  0  0  2           0  0  0
   -0.6499    0.0000    1.1864 N   0  0  0  0  0  3           0  0  0
   -2.7122    0.0342    0.0119 N   0  0  0  0  0  3           0  0  0
   -2.6631    0.0365    2.3947 N   0  0  0  0  0  3           0  0  0
   -2.8329    0.0396   -2.3297 N   0  0  0  0  0  3           0  0  0
    0.0000    0.0000    0.0000 C   0  0  0  0  0  4           0  0  0
   -1.9979    0.0227    1.1620 C   0  0  0  0  0  4           0  0  0
   -2.0552    0.0092   -1.1749 C   0  0  0  0  0  4           0  0  0
   -4.0268    0.0602    2.6966 C   0  0  0  0  0  4           0  0  0
   -0.6626    0.0120   -1.2221 C   0  0  0  0  0  4           0  0  0
   -6.7685    0.1458    3.3797 C   0  0  0  0  0  4           0  0  0
   -4.4582    0.6816    3.8780 C   0  0  0  0  0  4           0  0  0
   -4.9957   -0.5180    1.8638 C   0  0  0  0  0  4           0  0  0
   -5.8132    0.7248    4.2197 C   0  0  0  0  0  4           0  0  0
   -6.3540   -0.4783    2.1995 C   0  0  0  0  0  4           0  0  0
   -8.1843    0.2121    3.7815 C   0  0  0  0  0  4           0  0  0
    0.0530    0.0406   -2.4924 C   0  0  0  0  0  4           0  0  0
    1.9722    0.0000    1.3021 C   0  0  0  0  0  4           0  0  0
    3.4954    0.0000    1.1835 C   0  0  2  0  0  4           0  0  0
    4.0002    1.2392    0.4266 C   0  0  0  0  0  4           0  0  0
    4.0077   -1.2833    0.5094 C   0  0  0  0  0  4           0  0  0
    5.5220    1.2392    0.2990 C   0  0  0  0  0  4           0  0  0
    5.5300   -1.2820    0.3811 C   0  0  0  0  0  4           0  0  0
    6.0302   -0.0423   -0.3539 C   0  0  0  0  0  4           0  0  0
  1  9  1  0     0  0
  1 21  1  0     0  0
  2 19  2  0     0  0
  3 20  2  0     0  0
  4 19  1  0     0  0
  5  9  2  0     0  0
  5 10  1  0     0  0
  6 10  2  0     0  0
  6 11  1  0     0  0
  7 10  1  0     0  0
  7 12  1  0     0  0
  8 11  1  0     0  0
  9 13  1  0     0  0
 11 13  2  0     0  0
 12 15  2  0     0  0
 12 16  1  0     0  0
 13 20  1  0     0  0
 14 17  2  0     0  0
 14 18  1  0     0  0
 14 19  1  0     0  0
 15 17  1  0     0  0
 16 18  2  0     0  0
 21 22  1  0     0  0
 22 23  1  0     0  0
 22 24  1  0     0  0
 23 25  1  0     0  0
 24 26  1  0     0  0
 25 27  1  0     0  0
 26 27  1  0     0  0
M  END
> <Compound >
8

> <standard_type>
pIC50

> <# Confs.>
25

> <canonical_smiles>
NC1=C(C([H])=O)C(OCC2CCCCC2)=NC(NC3=CC=C(C(O)=O)C=C3)=N1

> <standard_relation>
=

> <predicted_activity_value>
6.3810110796350665

> <actual_activity_value>
6.214670164989233

> <Publication ID>
nan

> <standard_units>
nM

> hash
15825024621968746168

$$$$
8_
XXILIB    08252103513D 0   0.00000     0.00000

 27 29  0     1  0            999 V2000
    1.3875    0.0000    0.0000 O   0  0  0  0  0  2           0  0  0
   -1.4320   -0.5703    8.6793 O   0  0  0  0  0  2           0  0  0
   -0.4328   -0.4765   -3.4890 O   0  0  0  0  0  2           0  0  0
    0.4137    0.5299    7.9174 O   0  0  0  0  0  2           0  0  0
   -0.6499    0.0000    1.1864 N   0  0  0  0  0  3           0  0  0
   -2.7122    0.0342    0.0119 N   0  0  0  0  0  3           0  0  0
   -2.6631    0.0365    2.3947 N   0  0  0  0  0  3           0  0  0
   -2.8329    0.0396   -2.3297 N   0  0  0  0  0  3           0  0  0
    0.0000    0.0000    0.0000 C   0  0  0  0  0  4           0  0  0
   -1.9979    0.0227    1.1620 C   0  0  0  0  0  4           0  0  0
   -2.0552    0.0092   -1.1749 C   0  0  0  0  0  4           0  0  0
   -2.1670    0.0309    3.7005 C   0  0  0  0  0  4           0  0  0
   -0.6626    0.0120   -1.2221 C   0  0  0  0  0  4           0  0  0
   -1.2334   -0.0171    6.3683 C   0  0  0  0  0  4           0  0  0
   -2.9233   -0.5658    4.7203 C   0  0  0  0  0  4           0  0  0
   -0.9336    0.6036    4.0433 C   0  0  0  0  0  4           0  0  0
   -2.4654   -0.5903    6.0410 C   0  0  0  0  0  4           0  0  0
   -0.4688    0.5825    5.3634 C   0  0  0  0  0  4           0  0  0
   -0.7926   -0.0631    7.7733 C   0  0  0  0  0  4           0  0  0
    0.0530    0.0406   -2.4924 C   0  0  0  0  0  4           0  0  0
    1.9722    0.0000    1.3021 C   0  0  0  0  0  4           0  0  0
    3.4954    0.0000    1.1835 C   0  0  2  0  0  4           0  0  0
    4.1636   -0.0000    2.5664 C   0  0  0  0  0  4           0  0  0
    4.0207   -1.1718    0.3347 C   0  0  0  0  0  4           0  0  0
    4.0455   -1.3447    3.2818 C   0  0  0  0  0  4           0  0  0
    3.9094   -2.5192    1.0464 C   0  0  0  0  0  4           0  0  0
    4.5734   -2.4873    2.4197 C   0  0  0  0  0  4           0  0  0
  1  9  1  0     0  0
  1 21  1  0     0  0
  2 19  2  0     0  0
  3 20  2  0     0  0
  4 19  1  0     0  0
  5  9  2  0     0  0
  5 10  1  0     0  0
  6 10  2  0     0  0
  6 11  1  0     0  0
  7 10  1  0     0  0
  7 12  1  0     0  0
  8 11  1  0     0  0
  9 13  1  0     0  0
 11 13  2  0     0  0
 12 15  2  0     0  0
 12 16  1  0     0  0
 13 20  1  0     0  0
 14 17  2  0     0  0
 14 18  1  0     0  0
 14 19  1  0     0  0
 15 17  1  0     0  0
 16 18  2  0     0  0
 21 22  1  0     0  0
 22 23  1  0     0  0
 22 24  1  0     0  0
 23 25  1  0     0  0
 24 26  1  0     0  0
 25 27  1  0     0  0
 26 27  1  0     0  0
M  END
> <Compound >
8

> <standard_type>
pIC50

> <# Confs.>
25

> <canonical_smiles>
NC1=C(C([H])=O)C(OCC2CCCCC2)=NC(NC3=CC=C(C(O)=O)C=C3)=N1

> <standard_relation>
=

> <predicted_activity_value>
6.3810110796350665

> <actual_activity_value>
6.214670164989233

> <Publication ID>
nan

> <standard_units>
nM

> hash
15825024621968746168

$$$$
8_
XXILIB    08252103513D 0   0.00000     0.00000

 27 29  0     1  0            999 V2000
    1.3875    0.0000    0.0000 O   0  0  0  0  0  2           0  0  0
   -8.5858    0.7409    4.8043 O   0  0  0  0  0  2           0  0  0
   -0.4328   -0.4765   -3.4890 O   0  0  0  0  0  2           0  0  0
   -8.9726   -0.3896    2.8627 O   0  0  0  0  0  2           0  0  0
   -0.6499    0.0000    1.1864 N   0  0  0  0  0  3           0  0  0
   -2.7122    0.0342    0.0119 N   0  0  0  0  0  3           0  0  0
   -2.6631    0.0365    2.3947 N   0  0  0  0  0  3           0  0  0
   -2.8329    0.0396   -2.3297 N   0  0  0  0  0  3           0  0  0
    0.0000    0.0000    0.0000 C   0  0  0  0  0  4           0  0  0
   -1.9979    0.0227    1.1620 C   0  0  0  0  0  4           0  0  0
   -2.0552    0.0092   -1.1749 C   0  0  0  0  0  4           0  0  0
   -4.0268    0.0602    2.6966 C   0  0  0  0  0  4           0  0  0
   -0.6626    0.0120   -1.2221 C   0  0  0  0  0  4           0  0  0
   -6.7685    0.1458    3.3797 C   0  0  0  0  0  4           0  0  0
   -4.4582    0.6816    3.8780 C   0  0  0  0  0  4           0  0  0
   -4.9957   -0.5180    1.8638 C   0  0  0  0  0  4           0  0  0
   -5.8132    0.7248    4.2197 C   0  0  0  0  0  4           0  0  0
   -6.3540   -0.4783    2.1995 C   0  0  0  0  0  4           0  0  0
   -8.1843    0.2121    3.7815 C   0  0  0  0  0  4           0  0  0
    0.0530    0.0406   -2.4924 C   0  0  0  0  0  4           0  0  0
    1.9722    0.0000    1.3021 C   0  0  0  0  0  4           0  0  0
    3.4954    0.0000    1.1835 C   0  0  2  0  0  4           0  0  0
    4.1636   -0.0000    2.5664 C   0  0  0  0  0  4           0  0  0
    4.0207   -1.1718    0.3347 C   0  0  0  0  0  4           0  0  0
    4.0455   -1.3447    3.2818 C   0  0  0  0  0  4           0  0  0
    3.9094   -2.5192    1.0464 C   0  0  0  0  0  4           0  0  0
    4.5734   -2.4873    2.4197 C   0  0  0  0  0  4           0  0  0
  1  9  1  0     0  0
  1 21  1  0     0  0
  2 19  2  0     0  0
  3 20  2  0     0  0
  4 19  1  0     0  0
  5  9  2  0     0  0
  5 10  1  0     0  0
  6 10  2  0     0  0
  6 11  1  0     0  0
  7 10  1  0     0  0
  7 12  1  0     0  0
  8 11  1  0     0  0
  9 13  1  0     0  0
 11 13  2  0     0  0
 12 15  2  0     0  0
 12 16  1  0     0  0
 13 20  1  0     0  0
 14 17  2  0     0  0
 14 18  1  0     0  0
 14 19  1  0     0  0
 15 17  1  0     0  0
 16 18  2  0     0  0
 21 22  1  0     0  0
 22 23  1  0     0  0
 22 24  1  0     0  0
 23 25  1  0     0  0
 24 26  1  0     0  0
 25 27  1  0     0  0
 26 27  1  0     0  0
M  END
> <Compound >
8

> <standard_type>
pIC50

> <# Confs.>
25

> <canonical_smiles>
NC1=C(C([H])=O)C(OCC2CCCCC2)=NC(NC3=CC=C(C(O)=O)C=C3)=N1

> <standard_relation>
=

> <predicted_activity_value>
6.3810110796350665

> <actual_activity_value>
6.214670164989233

> <Publication ID>
nan

> <standard_units>
nM

> hash
15825024621968746168

$$$$
8_
XXILIB    08252103513D 0   0.00000     0.00000

 27 29  0     1  0            999 V2000
    1.3875    0.0000    0.0000 O   0  0  0  0  0  2           0  0  0
   -9.1063   -0.2549    3.1345 O   0  0  0  0  0  2           0  0  0
   -0.4328   -0.4765   -3.4890 O   0  0  0  0  0  2           0  0  0
   -8.3183    0.8569    4.9622 O   0  0  0  0  0  2           0  0  0
   -0.6499    0.0000    1.1864 N   0  0  0  0  0  3           0  0  0
   -2.7122    0.0342    0.0119 N   0  0  0  0  0  3           0  0  0
   -2.6631    0.0365    2.3947 N   0  0  0  0  0  3           0  0  0
   -2.8329    0.0396   -2.3297 N   0  0  0  0  0  3           0  0  0
    0.0000    0.0000    0.0000 C   0  0  0  0  0  4           0  0  0
   -1.9979    0.0227    1.1620 C   0  0  0  0  0  4           0  0  0
   -2.0552    0.0092   -1.1749 C   0  0  0  0  0  4           0  0  0
   -4.0268    0.0602    2.6966 C   0  0  0  0  0  4           0  0  0
   -0.6626    0.0120   -1.2221 C   0  0  0  0  0  4           0  0  0
   -6.7685    0.1458    3.3797 C   0  0  0  0  0  4           0  0  0
   -4.4582    0.6816    3.8780 C   0  0  0  0  0  4           0  0  0
   -4.9957   -0.5180    1.8638 C   0  0  0  0  0  4           0  0  0
   -5.8132    0.7248    4.2197 C   0  0  0  0  0  4           0  0  0
   -6.3540   -0.4783    2.1995 C   0  0  0  0  0  4           0  0  0
   -8.1843    0.2121    3.7815 C   0  0  0  0  0  4           0  0  0
    0.0530    0.0406   -2.4924 C   0  0  0  0  0  4           0  0  0
    1.9722    0.0000    1.3021 C   0  0  0  0  0  4           0  0  0
    3.4954    0.0000    1.1835 C   0  0  2  0  0  4           0  0  0
    4.1669    0.0000    2.5664 C   0  0  0  0  0  4           0  0  0
    3.9950    1.1893    0.3469 C   0  0  0  0  0  4           0  0  0
    5.6898    0.0077    2.4523 C   0  0  0  0  0  4           0  0  0
    5.5185    1.1970    0.2342 C   0  0  0  0  0  4           0  0  0
    6.1829    1.1781    1.6074 C   0  0  0  0  0  4           0  0  0
  1  9  1  0     0  0
  1 21  1  0     0  0
  2 19  2  0     0  0
  3 20  2  0     0  0
  4 19  1  0     0  0
  5  9  2  0     0  0
  5 10  1  0     0  0
  6 10  2  0     0  0
  6 11  1  0     0  0
  7 10  1  0     0  0
  7 12  1  0     0  0
  8 11  1  0     0  0
  9 13  1  0     0  0
 11 13  2  0     0  0
 12 15  2  0     0  0
 12 16  1  0     0  0
 13 20  1  0     0  0
 14 17  2  0     0  0
 14 18  1  0     0  0
 14 19  1  0     0  0
 15 17  1  0     0  0
 16 18  2  0     0  0
 21 22  1  0     0  0
 22 23  1  0     0  0
 22 24  1  0     0  0
 23 25  1  0     0  0
 24 26  1  0     0  0
 25 27  1  0     0  0
 26 27  1  0     0  0
M  END
> <Compound >
8

> <standard_type>
pIC50

> <# Confs.>
25

> <canonical_smiles>
NC1=C(C([H])=O)C(OCC2CCCCC2)=NC(NC3=CC=C(C(O)=O)C=C3)=N1

> <standard_relation>
=

> <predicted_activity_value>
6.3810110796350665

> <actual_activity_value>
6.214670164989233

> <Publication ID>
nan

> <standard_units>
nM

> hash
15825024621968746168

$$$$
2_
XXILIB    08252103513D 0   0.00000     0.00000

 27 29  0     1  0            999 V2000
   -4.6013    0.5742   -0.8922 O   0  0  0  0  0  2           0  0  0
   -2.6441   -0.0207    2.4148 O   0  0  0  0  0  2           0  0  0
   -0.6185    0.0000    1.1993 N   0  0  0  0  0  3           0  0  0
   -0.6724   -0.0018   -1.1766 N   0  0  0  0  0  3           0  0  0
   -4.1072   -0.0143    0.0774 N   0  0  0  0  0  3           0  0  0
    1.4049    0.0000   -0.0000 N   0  0  0  0  0  3           0  0  0
   -2.6923   -0.0265   -2.3860 N   0  0  0  0  0  3           0  0  0
    1.4764    0.4866    6.3123 N   0  0  0  0  0  3           0  0  0
   -1.9706   -0.0005    1.2034 C   0  0  0  0  0  4           0  0  0
    0.0000    0.0000    0.0000 C   0  0  0  0  0  4           0  0  0
   -2.0290    0.0165   -1.1598 C   0  0  0  0  0  4           0  0  0
   -2.7366    0.0123    0.0420 C   0  0  0  0  0  4           0  0  0
    2.3161   -0.0000    1.0589 C   0  0  0  0  0  4           0  0  0
    2.9712   -0.5784    3.3470 C   0  0  0  0  0  4           0  0  0
    2.0326   -0.5919    2.3011 C   0  0  0  0  0  4           0  0  0
    3.5657    0.6141    0.8859 C   0  0  0  0  0  4           0  0  0
    4.2059    0.0497    3.1462 C   0  0  0  0  0  4           0  0  0
    4.5019    0.6409    1.9201 C   0  0  0  0  0  4           0  0  0
   -1.7905   -0.0393    3.5586 C   0  0  0  0  0  4           0  0  0
    1.9912   -0.2558    5.5837 C   0  0  0  0  0  4           0  0  0
    2.6423   -1.1988    4.6739 C   0  0  0  0  0  4           0  0  0
   -2.6360   -0.0605    4.8306 C   0  0  1  0  0  4           0  0  0
   -3.5434    1.1782    4.9220 C   0  0  0  0  0  4           0  0  0
   -3.4678   -1.3484    4.9006 C   0  0  0  0  0  4           0  0  0
   -4.4303    1.1380    6.1649 C   0  0  0  0  0  4           0  0  0
   -4.3509   -1.3839    6.1453 C   0  0  0  0  0  4           0  0  0
   -5.2430   -0.1506    6.2382 C   0  0  0  0  0  4           0  0  0
  1  5  2  0     0  0
  2  9  1  0     0  0
  2 19  1  0     0  0
  3  9  2  0     0  0
  3 10  1  0     0  0
  4 10  2  0     0  0
  4 11  1  0     0  0
  5 12  1  0     0  0
  6 10  1  0     0  0
  6 13  1  0     0  0
  7 11  1  0     0  0
  8 20  3  0     0  0
  9 12  1  0     0  0
 11 12  2  0     0  0
 13 15  1  0     0  0
 13 16  2  0     0  0
 14 15  2  0     0  0
 14 17  1  0     0  0
 14 21  1  0     0  0
 16 18  1  0     0  0
 17 18  2  0     0  0
 19 22  1  0     0  0
 20 21  1  0     0  0
 22 23  1  0     0  0
 22 24  1  0     0  0
 23 25  1  0     0  0
 24 26  1  0     0  0
 25 27  1  0     0  0
 26 27  1  0     0  0
M  END
> <Compound >
2

> <standard_type>
pIC50

> <# Confs.>
25

> <canonical_smiles>
N#CCC1=CC(NC2=NC(N)=C(N=O)C(OCC3CCCCC3)=N2)=CC=C1

> <standard_relation>
=

> <predicted_activity_value>
7.527243550682788

> <actual_activity_value>
7.481486060122112

> <Publication ID>
nan

> <standard_units>
nM

> hash
17599172884970068713

$$$$
2_
XXILIB    08252103513D 0   0.00000     0.00000

 27 29  0     1  0            999 V2000
   -4.6013    0.5742   -0.8922 O   0  0  0  0  0  2           0  0  0
   -2.6441   -0.0207    2.4148 O   0  0  0  0  0  2           0  0  0
   -0.6185    0.0000    1.1993 N   0  0  0  0  0  3           0  0  0
   -0.6724   -0.0018   -1.1766 N   0  0  0  0  0  3           0  0  0
   -4.1072   -0.0143    0.0774 N   0  0  0  0  0  3           0  0  0
    1.4049    0.0000   -0.0000 N   0  0  0  0  0  3           0  0  0
   -2.6923   -0.0265   -2.3860 N   0  0  0  0  0  3           0  0  0
    1.5541   -0.4258    6.3758 N   0  0  0  0  0  3           0  0  0
   -1.9706   -0.0005    1.2034 C   0  0  0  0  0  4           0  0  0
    0.0000    0.0000    0.0000 C   0  0  0  0  0  4           0  0  0
   -2.0290    0.0165   -1.1598 C   0  0  0  0  0  4           0  0  0
   -2.7366    0.0123    0.0420 C   0  0  0  0  0  4           0  0  0
    2.3161    0.0000    1.0589 C   0  0  0  0  0  4           0  0  0
    2.9689    0.5733    3.3489 C   0  0  0  0  0  4           0  0  0
    2.0326    0.5919    2.3011 C   0  0  0  0  0  4           0  0  0
    3.5671   -0.6109    0.8847 C   0  0  0  0  0  4           0  0  0
    4.2116   -0.0365    3.1412 C   0  0  0  0  0  4           0  0  0
    4.5076   -0.6279    1.9152 C   0  0  0  0  0  4           0  0  0
   -1.7905   -0.0393    3.5586 C   0  0  0  0  0  4           0  0  0
    2.0426    0.3020    5.6152 C   0  0  0  0  0  4           0  0  0
    2.6553    1.2285    4.6627 C   0  0  0  0  0  4           0  0  0
   -2.6360   -0.0605    4.8306 C   0  0  1  0  0  4           0  0  0
   -3.5434    1.1782    4.9220 C   0  0  0  0  0  4           0  0  0
   -3.4678   -1.3484    4.9006 C   0  0  0  0  0  4           0  0  0
   -4.4303    1.1380    6.1649 C   0  0  0  0  0  4           0  0  0
   -4.3509   -1.3839    6.1453 C   0  0  0  0  0  4           0  0  0
   -5.2430   -0.1506    6.2382 C   0  0  0  0  0  4           0  0  0
  1  5  2  0     0  0
  2  9  1  0     0  0
  2 19  1  0     0  0
  3  9  2  0     0  0
  3 10  1  0     0  0
  4 10  2  0     0  0
  4 11  1  0     0  0
  5 12  1  0     0  0
  6 10  1  0     0  0
  6 13  1  0     0  0
  7 11  1  0     0  0
  8 20  3  0     0  0
  9 12  1  0     0  0
 11 12  2  0     0  0
 13 15  1  0     0  0
 13 16  2  0     0  0
 14 15  2  0     0  0
 14 17  1  0     0  0
 14 21  1  0     0  0
 16 18  1  0     0  0
 17 18  2  0     0  0
 19 22  1  0     0  0
 20 21  1  0     0  0
 22 23  1  0     0  0
 22 24  1  0     0  0
 23 25  1  0     0  0
 24 26  1  0     0  0
 25 27  1  0     0  0
 26 27  1  0     0  0
M  END
> <Compound >
2

> <standard_type>
pIC50

> <# Confs.>
25

> <canonical_smiles>
N#CCC1=CC(NC2=NC(N)=C(N=O)C(OCC3CCCCC3)=N2)=CC=C1

> <standard_relation>
=

> <predicted_activity_value>
7.527243550682788

> <actual_activity_value>
7.481486060122112

> <Publication ID>
nan

> <standard_units>
nM

> hash
17599172884970068713

$$$$
2_
XXILIB    08252103513D 0   0.00000     0.00000

 27 29  0     1  0            999 V2000
   -4.6013    0.5742   -0.8922 O   0  0  0  0  0  2           0  0  0
   -2.6441   -0.0207    2.4148 O   0  0  0  0  0  2           0  0  0
   -0.6185    0.0000    1.1993 N   0  0  0  0  0  3           0  0  0
   -0.6724   -0.0018   -1.1766 N   0  0  0  0  0  3           0  0  0
   -4.1072   -0.0143    0.0774 N   0  0  0  0  0  3           0  0  0
    1.4049   -0.0000    0.0000 N   0  0  0  0  0  3           0  0  0
   -2.6923   -0.0265   -2.3860 N   0  0  0  0  0  3           0  0  0
    1.5541    0.4258   -6.3758 N   0  0  0  0  0  3           0  0  0
   -1.9706   -0.0005    1.2034 C   0  0  0  0  0  4           0  0  0
    0.0000    0.0000    0.0000 C   0  0  0  0  0  4           0  0  0
   -2.0290    0.0165   -1.1598 C   0  0  0  0  0  4           0  0  0
   -2.7366    0.0123    0.0420 C   0  0  0  0  0  4           0  0  0
    2.3161    0.0000   -1.0589 C   0  0  0  0  0  4           0  0  0
    2.9689   -0.5733   -3.3489 C   0  0  0  0  0  4           0  0  0
    2.0326   -0.5919   -2.3011 C   0  0  0  0  0  4           0  0  0
    3.5671    0.6109   -0.8847 C   0  0  0  0  0  4           0  0  0
    4.2116    0.0365   -3.1412 C   0  0  0  0  0  4           0  0  0
    4.5076    0.6279   -1.9152 C   0  0  0  0  0  4           0  0  0
   -1.7905   -0.0393    3.5586 C   0  0  0  0  0  4           0  0  0
    2.0426   -0.3020   -5.6152 C   0  0  0  0  0  4           0  0  0
    2.6553   -1.2285   -4.6627 C   0  0  0  0  0  4           0  0  0
   -2.6360   -0.0605    4.8306 C   0  0  1  0  0  4           0  0  0
   -3.5425   -1.3022    4.8811 C   0  0  0  0  0  4           0  0  0
   -1.7376    0.0059    6.0733 C   0  0  0  0  0  4           0  0  0
   -4.3524   -1.3579    6.1750 C   0  0  0  0  0  4           0  0  0
   -2.5522   -0.0485    7.3631 C   0  0  0  0  0  4           0  0  0
   -3.4567   -1.2755    7.4067 C   0  0  0  0  0  4           0  0  0
  1  5  2  0     0  0
  2  9  1  0     0  0
  2 19  1  0     0  0
  3  9  2  0     0  0
  3 10  1  0     0  0
  4 10  2  0     0  0
  4 11  1  0     0  0
  5 12  1  0     0  0
  6 10  1  0     0  0
  6 13  1  0     0  0
  7 11  1  0     0  0
  8 20  3  0     0  0
  9 12  1  0     0  0
 11 12  2  0     0  0
 13 15  1  0     0  0
 13 16  2  0     0  0
 14 15  2  0     0  0
 14 17  1  0     0  0
 14 21  1  0     0  0
 16 18  1  0     0  0
 17 18  2  0     0  0
 19 22  1  0     0  0
 20 21  1  0     0  0
 22 23  1  0     0  0
 22 24  1  0     0  0
 23 25  1  0     0  0
 24 26  1  0     0  0
 25 27  1  0     0  0
 26 27  1  0     0  0
M  END
> <Compound >
2

> <standard_type>
pIC50

> <# Confs.>
25

> <canonical_smiles>
N#CCC1=CC(NC2=NC(N)=C(N=O)C(OCC3CCCCC3)=N2)=CC=C1

> <standard_relation>
=

> <predicted_activity_value>
7.527243550682788

> <actual_activity_value>
7.481486060122112

> <Publication ID>
nan

> <standard_units>
nM

> hash
17599172884970068713

$$$$
2_
XXILIB    08252103513D 0   0.00000     0.00000

 27 29  0     1  0            999 V2000
   -4.6013    0.5742   -0.8922 O   0  0  0  0  0  2           0  0  0
   -2.6441   -0.0207    2.4148 O   0  0  0  0  0  2           0  0  0
   -0.6185    0.0000    1.1993 N   0  0  0  0  0  3           0  0  0
   -0.6724   -0.0018   -1.1766 N   0  0  0  0  0  3           0  0  0
   -4.1072   -0.0143    0.0774 N   0  0  0  0  0  3           0  0  0
    1.4049   -0.0000    0.0000 N   0  0  0  0  0  3           0  0  0
   -2.6923   -0.0265   -2.3860 N   0  0  0  0  0  3           0  0  0
    3.3357   -3.7621   -4.7123 N   0  0  0  0  0  3           0  0  0
   -1.9706   -0.0005    1.2034 C   0  0  0  0  0  4           0  0  0
    0.0000    0.0000    0.0000 C   0  0  0  0  0  4           0  0  0
   -2.0290    0.0165   -1.1598 C   0  0  0  0  0  4           0  0  0
   -2.7366    0.0123    0.0420 C   0  0  0  0  0  4           0  0  0
    2.3161    0.0000   -1.0589 C   0  0  0  0  0  4           0  0  0
    2.9689   -0.5733   -3.3489 C   0  0  0  0  0  4           0  0  0
    2.0326   -0.5919   -2.3011 C   0  0  0  0  0  4           0  0  0
    3.5671    0.6109   -0.8847 C   0  0  0  0  0  4           0  0  0
    4.2116    0.0365   -3.1412 C   0  0  0  0  0  4           0  0  0
    4.5076    0.6279   -1.9152 C   0  0  0  0  0  4           0  0  0
   -1.7905   -0.0393    3.5586 C   0  0  0  0  0  4           0  0  0
    3.0352   -2.6414   -4.6853 C   0  0  0  0  0  4           0  0  0
    2.6553   -1.2285   -4.6627 C   0  0  0  0  0  4           0  0  0
   -2.6360   -0.0605    4.8306 C   0  0  1  0  0  4           0  0  0
   -3.5425   -1.3022    4.8811 C   0  0  0  0  0  4           0  0  0
   -1.7376    0.0059    6.0733 C   0  0  0  0  0  4           0  0  0
   -4.3524   -1.3579    6.1750 C   0  0  0  0  0  4           0  0  0
   -2.5522   -0.0485    7.3631 C   0  0  0  0  0  4           0  0  0
   -3.4567   -1.2755    7.4067 C   0  0  0  0  0  4           0  0  0
  1  5  2  0     0  0
  2  9  1  0     0  0
  2 19  1  0     0  0
  3  9  2  0     0  0
  3 10  1  0     0  0
  4 10  2  0     0  0
  4 11  1  0     0  0
  5 12  1  0     0  0
  6 10  1  0     0  0
  6 13  1  0     0  0
  7 11  1  0     0  0
  8 20  3  0     0  0
  9 12  1  0     0  0
 11 12  2  0     0  0
 13 15  1  0     0  0
 13 16  2  0     0  0
 14 15  2  0     0  0
 14 17  1  0     0  0
 14 21  1  0     0  0
 16 18  1  0     0  0
 17 18  2  0     0  0
 19 22  1  0     0  0
 20 21  1  0     0  0
 22 23  1  0     0  0
 22 24  1  0     0  0
 23 25  1  0     0  0
 24 26  1  0     0  0
 25 27  1  0     0  0
 26 27  1  0     0  0
M  END
> <Compound >
2

> <standard_type>
pIC50

> <# Confs.>
25

> <canonical_smiles>
N#CCC1=CC(NC2=NC(N)=C(N=O)C(OCC3CCCCC3)=N2)=CC=C1

> <standard_relation>
=

> <predicted_activity_value>
7.527243550682788

> <actual_activity_value>
7.481486060122112

> <Publication ID>
nan

> <standard_units>
nM

> hash
17599172884970068713

$$$$
2_
XXILIB    08252103513D 0   0.00000     0.00000

 27 29  0     1  0            999 V2000
   -4.6013    0.5742   -0.8922 O   0  0  0  0  0  2           0  0  0
   -2.6441   -0.0207    2.4148 O   0  0  0  0  0  2           0  0  0
   -0.6185    0.0000    1.1993 N   0  0  0  0  0  3           0  0  0
   -0.6724   -0.0018   -1.1766 N   0  0  0  0  0  3           0  0  0
   -4.1072   -0.0143    0.0774 N   0  0  0  0  0  3           0  0  0
    1.4049   -0.0000    0.0000 N   0  0  0  0  0  3           0  0  0
   -2.6923   -0.0265   -2.3860 N   0  0  0  0  0  3           0  0  0
    1.4764   -0.4866   -6.3123 N   0  0  0  0  0  3           0  0  0
   -1.9706   -0.0005    1.2034 C   0  0  0  0  0  4           0  0  0
    0.0000    0.0000    0.0000 C   0  0  0  0  0  4           0  0  0
   -2.0290    0.0165   -1.1598 C   0  0  0  0  0  4           0  0  0
   -2.7366    0.0123    0.0420 C   0  0  0  0  0  4           0  0  0
    2.3161    0.0000   -1.0589 C   0  0  0  0  0  4           0  0  0
    2.9712    0.5784   -3.3470 C   0  0  0  0  0  4           0  0  0
    2.0326    0.5919   -2.3011 C   0  0  0  0  0  4           0  0  0
    3.5657   -0.6141   -0.8859 C   0  0  0  0  0  4           0  0  0
    4.2059   -0.0497   -3.1462 C   0  0  0  0  0  4           0  0  0
    4.5019   -0.6409   -1.9201 C   0  0  0  0  0  4           0  0  0
   -1.7905   -0.0393    3.5586 C   0  0  0  0  0  4           0  0  0
    1.9912    0.2558   -5.5837 C   0  0  0  0  0  4           0  0  0
    2.6423    1.1988   -4.6739 C   0  0  0  0  0  4           0  0  0
   -2.6360   -0.0605    4.8306 C   0  0  1  0  0  4           0  0  0
   -3.5425   -1.3022    4.8811 C   0  0  0  0  0  4           0  0  0
   -1.7376    0.0059    6.0733 C   0  0  0  0  0  4           0  0  0
   -4.3524   -1.3579    6.1750 C   0  0  0  0  0  4           0  0  0
   -2.5522   -0.0485    7.3631 C   0  0  0  0  0  4           0  0  0
   -3.4567   -1.2755    7.4067 C   0  0  0  0  0  4           0  0  0
  1  5  2  0     0  0
  2  9  1  0     0  0
  2 19  1  0     0  0
  3  9  2  0     0  0
  3 10  1  0     0  0
  4 10  2  0     0  0
  4 11  1  0     0  0
  5 12  1  0     0  0
  6 10  1  0     0  0
  6 13  1  0     0  0
  7 11  1  0     0  0
  8 20  3  0     0  0
  9 12  1  0     0  0
 11 12  2  0     0  0
 13 15  1  0     0  0
 13 16  2  0     0  0
 14 15  2  0     0  0
 14 17  1  0     0  0
 14 21  1  0     0  0
 16 18  1  0     0  0
 17 18  2  0     0  0
 19 22  1  0     0  0
 20 21  1  0     0  0
 22 23  1  0     0  0
 22 24  1  0     0  0
 23 25  1  0     0  0
 24 26  1  0     0  0
 25 27  1  0     0  0
 26 27  1  0     0  0
M  END
> <Compound >
2

> <standard_type>
pIC50

> <# Confs.>
25

> <canonical_smiles>
N#CCC1=CC(NC2=NC(N)=C(N=O)C(OCC3CCCCC3)=N2)=CC=C1

> <standard_relation>
=

> <predicted_activity_value>
7.527243550682788

> <actual_activity_value>
7.481486060122112

> <Publication ID>
nan

> <standard_units>
nM

> hash
17599172884970068713

$$$$
2_
XXILIB    08252103513D 0   0.00000     0.00000

 27 29  0     1  0            999 V2000
   -4.6013    0.5742   -0.8922 O   0  0  0  0  0  2           0  0  0
   -2.6441   -0.0207    2.4148 O   0  0  0  0  0  2           0  0  0
   -0.6185    0.0000    1.1993 N   0  0  0  0  0  3           0  0  0
   -0.6724   -0.0018   -1.1766 N   0  0  0  0  0  3           0  0  0
   -4.1072   -0.0143    0.0774 N   0  0  0  0  0  3           0  0  0
    1.4049    0.0000   -0.0000 N   0  0  0  0  0  3           0  0  0
   -2.6923   -0.0265   -2.3860 N   0  0  0  0  0  3           0  0  0
    1.5541   -0.4258    6.3758 N   0  0  0  0  0  3           0  0  0
   -1.9706   -0.0005    1.2034 C   0  0  0  0  0  4           0  0  0
    0.0000    0.0000    0.0000 C   0  0  0  0  0  4           0  0  0
   -2.0290    0.0165   -1.1598 C   0  0  0  0  0  4           0  0  0
   -2.7366    0.0123    0.0420 C   0  0  0  0  0  4           0  0  0
    2.3161    0.0000    1.0589 C   0  0  0  0  0  4           0  0  0
    2.9689    0.5733    3.3489 C   0  0  0  0  0  4           0  0  0
    2.0326    0.5919    2.3011 C   0  0  0  0  0  4           0  0  0
    3.5671   -0.6109    0.8847 C   0  0  0  0  0  4           0  0  0
    4.2116   -0.0365    3.1412 C   0  0  0  0  0  4           0  0  0
    4.5076   -0.6279    1.9152 C   0  0  0  0  0  4           0  0  0
   -1.7905   -0.0393    3.5586 C   0  0  0  0  0  4           0  0  0
    2.0426    0.3020    5.6152 C   0  0  0  0  0  4           0  0  0
    2.6553    1.2285    4.6627 C   0  0  0  0  0  4           0  0  0
   -2.6360   -0.0605    4.8306 C   0  0  1  0  0  4           0  0  0
   -3.5425   -1.3022    4.8811 C   0  0  0  0  0  4           0  0  0
   -1.7376    0.0059    6.0733 C   0  0  0  0  0  4           0  0  0
   -4.3524   -1.3579    6.1750 C   0  0  0  0  0  4           0  0  0
   -2.5522   -0.0485    7.3631 C   0  0  0  0  0  4           0  0  0
   -3.4567   -1.2755    7.4067 C   0  0  0  0  0  4           0  0  0
  1  5  2  0     0  0
  2  9  1  0     0  0
  2 19  1  0     0  0
  3  9  2  0     0  0
  3 10  1  0     0  0
  4 10  2  0     0  0
  4 11  1  0     0  0
  5 12  1  0     0  0
  6 10  1  0     0  0
  6 13  1  0     0  0
  7 11  1  0     0  0
  8 20  3  0     0  0
  9 12  1  0     0  0
 11 12  2  0     0  0
 13 15  1  0     0  0
 13 16  2  0     0  0
 14 15  2  0     0  0
 14 17  1  0     0  0
 14 21  1  0     0  0
 16 18  1  0     0  0
 17 18  2  0     0  0
 19 22  1  0     0  0
 20 21  1  0     0  0
 22 23  1  0     0  0
 22 24  1  0     0  0
 23 25  1  0     0  0
 24 26  1  0     0  0
 25 27  1  0     0  0
 26 27  1  0     0  0
M  END
> <Compound >
2

> <standard_type>
pIC50

> <# Confs.>
25

> <canonical_smiles>
N#CCC1=CC(NC2=NC(N)=C(N=O)C(OCC3CCCCC3)=N2)=CC=C1

> <standard_relation>
=

> <predicted_activity_value>
7.527243550682788

> <actual_activity_value>
7.481486060122112

> <Publication ID>
nan

> <standard_units>
nM

> hash
17599172884970068713

$$$$
2_
XXILIB    08252103513D 0   0.00000     0.00000

 27 29  0     1  0            999 V2000
   -4.6013    0.5742   -0.8922 O   0  0  0  0  0  2           0  0  0
   -2.6441   -0.0207    2.4148 O   0  0  0  0  0  2           0  0  0
   -0.6185    0.0000    1.1993 N   0  0  0  0  0  3           0  0  0
   -0.6724   -0.0018   -1.1766 N   0  0  0  0  0  3           0  0  0
   -4.1072   -0.0143    0.0774 N   0  0  0  0  0  3           0  0  0
    1.4049   -0.0000    0.0000 N   0  0  0  0  0  3           0  0  0
   -2.6923   -0.0265   -2.3860 N   0  0  0  0  0  3           0  0  0
    3.3669    3.7166   -4.8158 N   0  0  0  0  0  3           0  0  0
   -1.9706   -0.0005    1.2034 C   0  0  0  0  0  4           0  0  0
    0.0000    0.0000    0.0000 C   0  0  0  0  0  4           0  0  0
   -2.0290    0.0165   -1.1598 C   0  0  0  0  0  4           0  0  0
   -2.7366    0.0123    0.0420 C   0  0  0  0  0  4           0  0  0
    2.3161    0.0000   -1.0589 C   0  0  0  0  0  4           0  0  0
    2.9712    0.5784   -3.3470 C   0  0  0  0  0  4           0  0  0
    2.0326    0.5919   -2.3011 C   0  0  0  0  0  4           0  0  0
    3.5657   -0.6141   -0.8859 C   0  0  0  0  0  4           0  0  0
    4.2059   -0.0497   -3.1462 C   0  0  0  0  0  4           0  0  0
    4.5019   -0.6409   -1.9201 C   0  0  0  0  0  4           0  0  0
   -1.7905   -0.0393    3.5586 C   0  0  0  0  0  4           0  0  0
    3.0493    2.6023   -4.7489 C   0  0  0  0  0  4           0  0  0
    2.6423    1.1988   -4.6739 C   0  0  0  0  0  4           0  0  0
   -2.6360   -0.0605    4.8306 C   0  0  1  0  0  4           0  0  0
   -3.5425   -1.3022    4.8811 C   0  0  0  0  0  4           0  0  0
   -1.7376    0.0059    6.0733 C   0  0  0  0  0  4           0  0  0
   -4.3524   -1.3579    6.1750 C   0  0  0  0  0  4           0  0  0
   -2.5522   -0.0485    7.3631 C   0  0  0  0  0  4           0  0  0
   -3.4567   -1.2755    7.4067 C   0  0  0  0  0  4           0  0  0
  1  5  2  0     0  0
  2  9  1  0     0  0
  2 19  1  0     0  0
  3  9  2  0     0  0
  3 10  1  0     0  0
  4 10  2  0     0  0
  4 11  1  0     0  0
  5 12  1  0     0  0
  6 10  1  0     0  0
  6 13  1  0     0  0
  7 11  1  0     0  0
  8 20  3  0     0  0
  9 12  1  0     0  0
 11 12  2  0     0  0
 13 15  1  0     0  0
 13 16  2  0     0  0
 14 15  2  0     0  0
 14 17  1  0     0  0
 14 21  1  0     0  0
 16 18  1  0     0  0
 17 18  2  0     0  0
 19 22  1  0     0  0
 20 21  1  0     0  0
 22 23  1  0     0  0
 22 24  1  0     0  0
 23 25  1  0     0  0
 24 26  1  0     0  0
 25 27  1  0     0  0
 26 27  1  0     0  0
M  END
> <Compound >
2

> <standard_type>
pIC50

> <# Confs.>
25

> <canonical_smiles>
N#CCC1=CC(NC2=NC(N)=C(N=O)C(OCC3CCCCC3)=N2)=CC=C1

> <standard_relation>
=

> <predicted_activity_value>
7.527243550682788

> <actual_activity_value>
7.481486060122112

> <Publication ID>
nan

> <standard_units>
nM

> hash
17599172884970068713

$$$$
2_
XXILIB    08252103513D 0   0.00000     0.00000

 27 29  0     1  0            999 V2000
   -4.6013    0.5742   -0.8922 O   0  0  0  0  0  2           0  0  0
   -2.6441   -0.0207    2.4148 O   0  0  0  0  0  2           0  0  0
   -0.6185    0.0000    1.1993 N   0  0  0  0  0  3           0  0  0
   -0.6724   -0.0018   -1.1766 N   0  0  0  0  0  3           0  0  0
   -4.1072   -0.0143    0.0774 N   0  0  0  0  0  3           0  0  0
    1.4049   -0.0000    0.0000 N   0  0  0  0  0  3           0  0  0
   -2.6923   -0.0265   -2.3860 N   0  0  0  0  0  3           0  0  0
    1.5541    0.4258   -6.3758 N   0  0  0  0  0  3           0  0  0
   -1.9706   -0.0005    1.2034 C   0  0  0  0  0  4           0  0  0
    0.0000    0.0000    0.0000 C   0  0  0  0  0  4           0  0  0
   -2.0290    0.0165   -1.1598 C   0  0  0  0  0  4           0  0  0
   -2.7366    0.0123    0.0420 C   0  0  0  0  0  4           0  0  0
    2.3161    0.0000   -1.0589 C   0  0  0  0  0  4           0  0  0
    2.9689   -0.5733   -3.3489 C   0  0  0  0  0  4           0  0  0
    2.0326   -0.5919   -2.3011 C   0  0  0  0  0  4           0  0  0
    3.5671    0.6109   -0.8847 C   0  0  0  0  0  4           0  0  0
    4.2116    0.0365   -3.1412 C   0  0  0  0  0  4           0  0  0
    4.5076    0.6279   -1.9152 C   0  0  0  0  0  4           0  0  0
   -1.7905   -0.0393    3.5586 C   0  0  0  0  0  4           0  0  0
    2.0426   -0.3020   -5.6152 C   0  0  0  0  0  4           0  0  0
    2.6553   -1.2285   -4.6627 C   0  0  0  0  0  4           0  0  0
   -2.6360   -0.0605    4.8306 C   0  0  1  0  0  4           0  0  0
   -1.7536   -0.0810    6.0905 C   0  0  0  0  0  4           0  0  0
   -3.5935    1.1386    4.8586 C   0  0  0  0  0  4           0  0  0
   -2.5915   -0.0489    7.3673 C   0  0  0  0  0  4           0  0  0
   -4.4293    1.1647    6.1358 C   0  0  0  0  0  4           0  0  0
   -3.5527    1.1353    7.3832 C   0  0  0  0  0  4           0  0  0
  1  5  2  0     0  0
  2  9  1  0     0  0
  2 19  1  0     0  0
  3  9  2  0     0  0
  3 10  1  0     0  0
  4 10  2  0     0  0
  4 11  1  0     0  0
  5 12  1  0     0  0
  6 10  1  0     0  0
  6 13  1  0     0  0
  7 11  1  0     0  0
  8 20  3  0     0  0
  9 12  1  0     0  0
 11 12  2  0     0  0
 13 15  1  0     0  0
 13 16  2  0     0  0
 14 15  2  0     0  0
 14 17  1  0     0  0
 14 21  1  0     0  0
 16 18  1  0     0  0
 17 18  2  0     0  0
 19 22  1  0     0  0
 20 21  1  0     0  0
 22 23  1  0     0  0
 22 24  1  0     0  0
 23 25  1  0     0  0
 24 26  1  0     0  0
 25 27  1  0     0  0
 26 27  1  0     0  0
M  END
> <Compound >
2

> <standard_type>
pIC50

> <# Confs.>
25

> <canonical_smiles>
N#CCC1=CC(NC2=NC(N)=C(N=O)C(OCC3CCCCC3)=N2)=CC=C1

> <standard_relation>
=

> <predicted_activity_value>
7.527243550682788

> <actual_activity_value>
7.481486060122112

> <Publication ID>
nan

> <standard_units>
nM

> hash
17599172884970068713

$$$$
2_
XXILIB    08252103513D 0   0.00000     0.00000

 27 29  0     1  0            999 V2000
   -4.6013    0.5742   -0.8922 O   0  0  0  0  0  2           0  0  0
   -2.6441   -0.0207    2.4148 O   0  0  0  0  0  2           0  0  0
   -0.6185    0.0000    1.1993 N   0  0  0  0  0  3           0  0  0
   -0.6724   -0.0018   -1.1766 N   0  0  0  0  0  3           0  0  0
   -4.1072   -0.0143    0.0774 N   0  0  0  0  0  3           0  0  0
    1.4049   -0.0000    0.0000 N   0  0  0  0  0  3           0  0  0
   -2.6923   -0.0265   -2.3860 N   0  0  0  0  0  3           0  0  0
    1.5541    0.4258   -6.3758 N   0  0  0  0  0  3           0  0  0
   -1.9706   -0.0005    1.2034 C   0  0  0  0  0  4           0  0  0
    0.0000    0.0000    0.0000 C   0  0  0  0  0  4           0  0  0
   -2.0290    0.0165   -1.1598 C   0  0  0  0  0  4           0  0  0
   -2.7366    0.0123    0.0420 C   0  0  0  0  0  4           0  0  0
    2.3161    0.0000   -1.0589 C   0  0  0  0  0  4           0  0  0
    2.9689   -0.5733   -3.3489 C   0  0  0  0  0  4           0  0  0
    2.0326   -0.5919   -2.3011 C   0  0  0  0  0  4           0  0  0
    3.5671    0.6109   -0.8847 C   0  0  0  0  0  4           0  0  0
    4.2116    0.0365   -3.1412 C   0  0  0  0  0  4           0  0  0
    4.5076    0.6279   -1.9152 C   0  0  0  0  0  4           0  0  0
   -1.7905   -0.0393    3.5586 C   0  0  0  0  0  4           0  0  0
    2.0426   -0.3020   -5.6152 C   0  0  0  0  0  4           0  0  0
    2.6553   -1.2285   -4.6627 C   0  0  0  0  0  4           0  0  0
   -2.6360   -0.0605    4.8306 C   0  0  1  0  0  4           0  0  0
   -3.5434    1.1782    4.9220 C   0  0  0  0  0  4           0  0  0
   -3.4678   -1.3484    4.9006 C   0  0  0  0  0  4           0  0  0
   -4.4303    1.1380    6.1649 C   0  0  0  0  0  4           0  0  0
   -4.3509   -1.3839    6.1453 C   0  0  0  0  0  4           0  0  0
   -5.2430   -0.1506    6.2382 C   0  0  0  0  0  4           0  0  0
  1  5  2  0     0  0
  2  9  1  0     0  0
  2 19  1  0     0  0
  3  9  2  0     0  0
  3 10  1  0     0  0
  4 10  2  0     0  0
  4 11  1  0     0  0
  5 12  1  0     0  0
  6 10  1  0     0  0
  6 13  1  0     0  0
  7 11  1  0     0  0
  8 20  3  0     0  0
  9 12  1  0     0  0
 11 12  2  0     0  0
 13 15  1  0     0  0
 13 16  2  0     0  0
 14 15  2  0     0  0
 14 17  1  0     0  0
 14 21  1  0     0  0
 16 18  1  0     0  0
 17 18  2  0     0  0
 19 22  1  0     0  0
 20 21  1  0     0  0
 22 23  1  0     0  0
 22 24  1  0     0  0
 23 25  1  0     0  0
 24 26  1  0     0  0
 25 27  1  0     0  0
 26 27  1  0     0  0
M  END
> <Compound >
2

> <standard_type>
pIC50

> <# Confs.>
25

> <canonical_smiles>
N#CCC1=CC(NC2=NC(N)=C(N=O)C(OCC3CCCCC3)=N2)=CC=C1

> <standard_relation>
=

> <predicted_activity_value>
7.527243550682788

> <actual_activity_value>
7.481486060122112

> <Publication ID>
nan

> <standard_units>
nM

> hash
17599172884970068713

$$$$
2_
XXILIB    08252103513D 0   0.00000     0.00000

 27 29  0     1  0            999 V2000
   -4.6013    0.5742   -0.8922 O   0  0  0  0  0  2           0  0  0
   -2.6441   -0.0207    2.4148 O   0  0  0  0  0  2           0  0  0
   -0.6185    0.0000    1.1993 N   0  0  0  0  0  3           0  0  0
   -0.6724   -0.0018   -1.1766 N   0  0  0  0  0  3           0  0  0
   -4.1072   -0.0143    0.0774 N   0  0  0  0  0  3           0  0  0
    1.4049    0.0000   -0.0000 N   0  0  0  0  0  3           0  0  0
   -2.6923   -0.0265   -2.3860 N   0  0  0  0  0  3           0  0  0
    1.5541   -0.4258    6.3758 N   0  0  0  0  0  3           0  0  0
   -1.9706   -0.0005    1.2034 C   0  0  0  0  0  4           0  0  0
    0.0000    0.0000    0.0000 C   0  0  0  0  0  4           0  0  0
   -2.0290    0.0165   -1.1598 C   0  0  0  0  0  4           0  0  0
   -2.7366    0.0123    0.0420 C   0  0  0  0  0  4           0  0  0
    2.3161    0.0000    1.0589 C   0  0  0  0  0  4           0  0  0
    2.9689    0.5733    3.3489 C   0  0  0  0  0  4           0  0  0
    2.0326    0.5919    2.3011 C   0  0  0  0  0  4           0  0  0
    3.5671   -0.6109    0.8847 C   0  0  0  0  0  4           0  0  0
    4.2116   -0.0365    3.1412 C   0  0  0  0  0  4           0  0  0
    4.5076   -0.6279    1.9152 C   0  0  0  0  0  4           0  0  0
   -1.7905   -0.0393    3.5586 C   0  0  0  0  0  4           0  0  0
    2.0426    0.3020    5.6152 C   0  0  0  0  0  4           0  0  0
    2.6553    1.2285    4.6627 C   0  0  0  0  0  4           0  0  0
   -2.6360   -0.0605    4.8306 C   0  0  1  0  0  4           0  0  0
   -1.7536   -0.0810    6.0905 C   0  0  0  0  0  4           0  0  0
   -3.5935    1.1386    4.8586 C   0  0  0  0  0  4           0  0  0
   -2.5915   -0.0489    7.3673 C   0  0  0  0  0  4           0  0  0
   -4.4293    1.1647    6.1358 C   0  0  0  0  0  4           0  0  0
   -3.5527    1.1353    7.3832 C   0  0  0  0  0  4           0  0  0
  1  5  2  0     0  0
  2  9  1  0     0  0
  2 19  1  0     0  0
  3  9  2  0     0  0
  3 10  1  0     0  0
  4 10  2  0     0  0
  4 11  1  0     0  0
  5 12  1  0     0  0
  6 10  1  0     0  0
  6 13  1  0     0  0
  7 11  1  0     0  0
  8 20  3  0     0  0
  9 12  1  0     0  0
 11 12  2  0     0  0
 13 15  1  0     0  0
 13 16  2  0     0  0
 14 15  2  0     0  0
 14 17  1  0     0  0
 14 21  1  0     0  0
 16 18  1  0     0  0
 17 18  2  0     0  0
 19 22  1  0     0  0
 20 21  1  0     0  0
 22 23  1  0     0  0
 22 24  1  0     0  0
 23 25  1  0     0  0
 24 26  1  0     0  0
 25 27  1  0     0  0
 26 27  1  0     0  0
M  END
> <Compound >
2

> <standard_type>
pIC50

> <# Confs.>
25

> <canonical_smiles>
N#CCC1=CC(NC2=NC(N)=C(N=O)C(OCC3CCCCC3)=N2)=CC=C1

> <standard_relation>
=

> <predicted_activity_value>
7.527243550682788

> <actual_activity_value>
7.481486060122112

> <Publication ID>
nan

> <standard_units>
nM

> hash
17599172884970068713

$$$$
2_
XXILIB    08252103513D 0   0.00000     0.00000

 27 29  0     1  0            999 V2000
   -4.6013    0.5742   -0.8922 O   0  0  0  0  0  2           0  0  0
   -2.6441   -0.0207    2.4148 O   0  0  0  0  0  2           0  0  0
   -0.6185    0.0000    1.1993 N   0  0  0  0  0  3           0  0  0
   -0.6724   -0.0018   -1.1766 N   0  0  0  0  0  3           0  0  0
   -4.1072   -0.0143    0.0774 N   0  0  0  0  0  3           0  0  0
    1.4049    0.0000   -0.0000 N   0  0  0  0  0  3           0  0  0
   -2.6923   -0.0265   -2.3860 N   0  0  0  0  0  3           0  0  0
    1.4764    0.4866    6.3123 N   0  0  0  0  0  3           0  0  0
   -1.9706   -0.0005    1.2034 C   0  0  0  0  0  4           0  0  0
    0.0000    0.0000    0.0000 C   0  0  0  0  0  4           0  0  0
   -2.0290    0.0165   -1.1598 C   0  0  0  0  0  4           0  0  0
   -2.7366    0.0123    0.0420 C   0  0  0  0  0  4           0  0  0
    2.3161   -0.0000    1.0589 C   0  0  0  0  0  4           0  0  0
    2.9712   -0.5784    3.3470 C   0  0  0  0  0  4           0  0  0
    2.0326   -0.5919    2.3011 C   0  0  0  0  0  4           0  0  0
    3.5657    0.6141    0.8859 C   0  0  0  0  0  4           0  0  0
    4.2059    0.0497    3.1462 C   0  0  0  0  0  4           0  0  0
    4.5019    0.6409    1.9201 C   0  0  0  0  0  4           0  0  0
   -1.7905   -0.0393    3.5586 C   0  0  0  0  0  4           0  0  0
    1.9912   -0.2558    5.5837 C   0  0  0  0  0  4           0  0  0
    2.6423   -1.1988    4.6739 C   0  0  0  0  0  4           0  0  0
   -2.6360   -0.0605    4.8306 C   0  0  1  0  0  4           0  0  0
   -3.5425   -1.3022    4.8811 C   0  0  0  0  0  4           0  0  0
   -1.7376    0.0059    6.0733 C   0  0  0  0  0  4           0  0  0
   -4.3524   -1.3579    6.1750 C   0  0  0  0  0  4           0  0  0
   -2.5522   -0.0485    7.3631 C   0  0  0  0  0  4           0  0  0
   -3.4567   -1.2755    7.4067 C   0  0  0  0  0  4           0  0  0
  1  5  2  0     0  0
  2  9  1  0     0  0
  2 19  1  0     0  0
  3  9  2  0     0  0
  3 10  1  0     0  0
  4 10  2  0     0  0
  4 11  1  0     0  0
  5 12  1  0     0  0
  6 10  1  0     0  0
  6 13  1  0     0  0
  7 11  1  0     0  0
  8 20  3  0     0  0
  9 12  1  0     0  0
 11 12  2  0     0  0
 13 15  1  0     0  0
 13 16  2  0     0  0
 14 15  2  0     0  0
 14 17  1  0     0  0
 14 21  1  0     0  0
 16 18  1  0     0  0
 17 18  2  0     0  0
 19 22  1  0     0  0
 20 21  1  0     0  0
 22 23  1  0     0  0
 22 24  1  0     0  0
 23 25  1  0     0  0
 24 26  1  0     0  0
 25 27  1  0     0  0
 26 27  1  0     0  0
M  END
> <Compound >
2

> <standard_type>
pIC50

> <# Confs.>
25

> <canonical_smiles>
N#CCC1=CC(NC2=NC(N)=C(N=O)C(OCC3CCCCC3)=N2)=CC=C1

> <standard_relation>
=

> <predicted_activity_value>
7.527243550682788

> <actual_activity_value>
7.481486060122112

> <Publication ID>
nan

> <standard_units>
nM

> hash
17599172884970068713

$$$$
2_
XXILIB    08252103513D 0   0.00000     0.00000

 27 29  0     1  0            999 V2000
   -4.6013    0.5742   -0.8922 O   0  0  0  0  0  2           0  0  0
   -2.6441   -0.0207    2.4148 O   0  0  0  0  0  2           0  0  0
   -0.6185    0.0000    1.1993 N   0  0  0  0  0  3           0  0  0
   -0.6724   -0.0018   -1.1766 N   0  0  0  0  0  3           0  0  0
   -4.1072   -0.0143    0.0774 N   0  0  0  0  0  3           0  0  0
    1.4049    0.0000   -0.0000 N   0  0  0  0  0  3           0  0  0
   -2.6923   -0.0265   -2.3860 N   0  0  0  0  0  3           0  0  0
    3.3357    3.7621    4.7123 N   0  0  0  0  0  3           0  0  0
   -1.9706   -0.0005    1.2034 C   0  0  0  0  0  4           0  0  0
    0.0000    0.0000    0.0000 C   0  0  0  0  0  4           0  0  0
   -2.0290    0.0165   -1.1598 C   0  0  0  0  0  4           0  0  0
   -2.7366    0.0123    0.0420 C   0  0  0  0  0  4           0  0  0
    2.3161    0.0000    1.0589 C   0  0  0  0  0  4           0  0  0
    2.9689    0.5733    3.3489 C   0  0  0  0  0  4           0  0  0
    2.0326    0.5919    2.3011 C   0  0  0  0  0  4           0  0  0
    3.5671   -0.6109    0.8847 C   0  0  0  0  0  4           0  0  0
    4.2116   -0.0365    3.1412 C   0  0  0  0  0  4           0  0  0
    4.5076   -0.6279    1.9152 C   0  0  0  0  0  4           0  0  0
   -1.7905   -0.0393    3.5586 C   0  0  0  0  0  4           0  0  0
    3.0352    2.6414    4.6853 C   0  0  0  0  0  4           0  0  0
    2.6553    1.2285    4.6627 C   0  0  0  0  0  4           0  0  0
   -2.6360   -0.0605    4.8306 C   0  0  1  0  0  4           0  0  0
   -3.5425   -1.3022    4.8811 C   0  0  0  0  0  4           0  0  0
   -1.7376    0.0059    6.0733 C   0  0  0  0  0  4           0  0  0
   -4.3524   -1.3579    6.1750 C   0  0  0  0  0  4           0  0  0
   -2.5522   -0.0485    7.3631 C   0  0  0  0  0  4           0  0  0
   -3.4567   -1.2755    7.4067 C   0  0  0  0  0  4           0  0  0
  1  5  2  0     0  0
  2  9  1  0     0  0
  2 19  1  0     0  0
  3  9  2  0     0  0
  3 10  1  0     0  0
  4 10  2  0     0  0
  4 11  1  0     0  0
  5 12  1  0     0  0
  6 10  1  0     0  0
  6 13  1  0     0  0
  7 11  1  0     0  0
  8 20  3  0     0  0
  9 12  1  0     0  0
 11 12  2  0     0  0
 13 15  1  0     0  0
 13 16  2  0     0  0
 14 15  2  0     0  0
 14 17  1  0     0  0
 14 21  1  0     0  0
 16 18  1  0     0  0
 17 18  2  0     0  0
 19 22  1  0     0  0
 20 21  1  0     0  0
 22 23  1  0     0  0
 22 24  1  0     0  0
 23 25  1  0     0  0
 24 26  1  0     0  0
 25 27  1  0     0  0
 26 27  1  0     0  0
M  END
> <Compound >
2

> <standard_type>
pIC50

> <# Confs.>
25

> <canonical_smiles>
N#CCC1=CC(NC2=NC(N)=C(N=O)C(OCC3CCCCC3)=N2)=CC=C1

> <standard_relation>
=

> <predicted_activity_value>
7.527243550682788

> <actual_activity_value>
7.481486060122112

> <Publication ID>
nan

> <standard_units>
nM

> hash
17599172884970068713

$$$$
2_
XXILIB    08252103513D 0   0.00000     0.00000

 27 29  0     1  0            999 V2000
   -4.6013    0.5742   -0.8922 O   0  0  0  0  0  2           0  0  0
   -2.6441   -0.0207    2.4148 O   0  0  0  0  0  2           0  0  0
   -0.6185    0.0000    1.1993 N   0  0  0  0  0  3           0  0  0
   -0.6724   -0.0018   -1.1766 N   0  0  0  0  0  3           0  0  0
   -4.1072   -0.0143    0.0774 N   0  0  0  0  0  3           0  0  0
    1.4049   -0.0000    0.0000 N   0  0  0  0  0  3           0  0  0
   -2.6923   -0.0265   -2.3860 N   0  0  0  0  0  3           0  0  0
    3.3357   -3.7621   -4.7123 N   0  0  0  0  0  3           0  0  0
   -1.9706   -0.0005    1.2034 C   0  0  0  0  0  4           0  0  0
    0.0000    0.0000    0.0000 C   0  0  0  0  0  4           0  0  0
   -2.0290    0.0165   -1.1598 C   0  0  0  0  0  4           0  0  0
   -2.7366    0.0123    0.0420 C   0  0  0  0  0  4           0  0  0
    2.3161    0.0000   -1.0589 C   0  0  0  0  0  4           0  0  0
    2.9689   -0.5733   -3.3489 C   0  0  0  0  0  4           0  0  0
    2.0326   -0.5919   -2.3011 C   0  0  0  0  0  4           0  0  0
    3.5671    0.6109   -0.8847 C   0  0  0  0  0  4           0  0  0
    4.2116    0.0365   -3.1412 C   0  0  0  0  0  4           0  0  0
    4.5076    0.6279   -1.9152 C   0  0  0  0  0  4           0  0  0
   -1.7905   -0.0393    3.5586 C   0  0  0  0  0  4           0  0  0
    3.0352   -2.6414   -4.6853 C   0  0  0  0  0  4           0  0  0
    2.6553   -1.2285   -4.6627 C   0  0  0  0  0  4           0  0  0
   -2.6360   -0.0605    4.8306 C   0  0  1  0  0  4           0  0  0
   -1.7536   -0.0810    6.0905 C   0  0  0  0  0  4           0  0  0
   -3.5935    1.1386    4.8586 C   0  0  0  0  0  4           0  0  0
   -2.5915   -0.0489    7.3673 C   0  0  0  0  0  4           0  0  0
   -4.4293    1.1647    6.1358 C   0  0  0  0  0  4           0  0  0
   -3.5527    1.1353    7.3832 C   0  0  0  0  0  4           0  0  0
  1  5  2  0     0  0
  2  9  1  0     0  0
  2 19  1  0     0  0
  3  9  2  0     0  0
  3 10  1  0     0  0
  4 10  2  0     0  0
  4 11  1  0     0  0
  5 12  1  0     0  0
  6 10  1  0     0  0
  6 13  1  0     0  0
  7 11  1  0     0  0
  8 20  3  0     0  0
  9 12  1  0     0  0
 11 12  2  0     0  0
 13 15  1  0     0  0
 13 16  2  0     0  0
 14 15  2  0     0  0
 14 17  1  0     0  0
 14 21  1  0     0  0
 16 18  1  0     0  0
 17 18  2  0     0  0
 19 22  1  0     0  0
 20 21  1  0     0  0
 22 23  1  0     0  0
 22 24  1  0     0  0
 23 25  1  0     0  0
 24 26  1  0     0  0
 25 27  1  0     0  0
 26 27  1  0     0  0
M  END
> <Compound >
2

> <standard_type>
pIC50

> <# Confs.>
25

> <canonical_smiles>
N#CCC1=CC(NC2=NC(N)=C(N=O)C(OCC3CCCCC3)=N2)=CC=C1

> <standard_relation>
=

> <predicted_activity_value>
7.527243550682788

> <actual_activity_value>
7.481486060122112

> <Publication ID>
nan

> <standard_units>
nM

> hash
17599172884970068713

$$$$
2_
XXILIB    08252103513D 0   0.00000     0.00000

 27 29  0     1  0            999 V2000
   -4.6013    0.5742   -0.8922 O   0  0  0  0  0  2           0  0  0
   -2.6441   -0.0207    2.4148 O   0  0  0  0  0  2           0  0  0
   -0.6185    0.0000    1.1993 N   0  0  0  0  0  3           0  0  0
   -0.6724   -0.0018   -1.1766 N   0  0  0  0  0  3           0  0  0
   -4.1072   -0.0143    0.0774 N   0  0  0  0  0  3           0  0  0
    1.4049   -0.0000    0.0000 N   0  0  0  0  0  3           0  0  0
   -2.6923   -0.0265   -2.3860 N   0  0  0  0  0  3           0  0  0
    3.3357   -3.7621   -4.7123 N   0  0  0  0  0  3           0  0  0
   -1.9706   -0.0005    1.2034 C   0  0  0  0  0  4           0  0  0
    0.0000    0.0000    0.0000 C   0  0  0  0  0  4           0  0  0
   -2.0290    0.0165   -1.1598 C   0  0  0  0  0  4           0  0  0
   -2.7366    0.0123    0.0420 C   0  0  0  0  0  4           0  0  0
    2.3161    0.0000   -1.0589 C   0  0  0  0  0  4           0  0  0
    2.9689   -0.5733   -3.3489 C   0  0  0  0  0  4           0  0  0
    2.0326   -0.5919   -2.3011 C   0  0  0  0  0  4           0  0  0
    3.5671    0.6109   -0.8847 C   0  0  0  0  0  4           0  0  0
    4.2116    0.0365   -3.1412 C   0  0  0  0  0  4           0  0  0
    4.5076    0.6279   -1.9152 C   0  0  0  0  0  4           0  0  0
   -1.7905   -0.0393    3.5586 C   0  0  0  0  0  4           0  0  0
    3.0352   -2.6414   -4.6853 C   0  0  0  0  0  4           0  0  0
    2.6553   -1.2285   -4.6627 C   0  0  0  0  0  4           0  0  0
   -2.6360   -0.0605    4.8306 C   0  0  1  0  0  4           0  0  0
   -3.5434    1.1782    4.9220 C   0  0  0  0  0  4           0  0  0
   -3.4678   -1.3484    4.9006 C   0  0  0  0  0  4           0  0  0
   -4.4303    1.1380    6.1649 C   0  0  0  0  0  4           0  0  0
   -4.3509   -1.3839    6.1453 C   0  0  0  0  0  4           0  0  0
   -5.2430   -0.1506    6.2382 C   0  0  0  0  0  4           0  0  0
  1  5  2  0     0  0
  2  9  1  0     0  0
  2 19  1  0     0  0
  3  9  2  0     0  0
  3 10  1  0     0  0
  4 10  2  0     0  0
  4 11  1  0     0  0
  5 12  1  0     0  0
  6 10  1  0     0  0
  6 13  1  0     0  0
  7 11  1  0     0  0
  8 20  3  0     0  0
  9 12  1  0     0  0
 11 12  2  0     0  0
 13 15  1  0     0  0
 13 16  2  0     0  0
 14 15  2  0     0  0
 14 17  1  0     0  0
 14 21  1  0     0  0
 16 18  1  0     0  0
 17 18  2  0     0  0
 19 22  1  0     0  0
 20 21  1  0     0  0
 22 23  1  0     0  0
 22 24  1  0     0  0
 23 25  1  0     0  0
 24 26  1  0     0  0
 25 27  1  0     0  0
 26 27  1  0     0  0
M  END
> <Compound >
2

> <standard_type>
pIC50

> <# Confs.>
25

> <canonical_smiles>
N#CCC1=CC(NC2=NC(N)=C(N=O)C(OCC3CCCCC3)=N2)=CC=C1

> <standard_relation>
=

> <predicted_activity_value>
7.527243550682788

> <actual_activity_value>
7.481486060122112

> <Publication ID>
nan

> <standard_units>
nM

> hash
17599172884970068713

$$$$
2_
XXILIB    08252103513D 0   0.00000     0.00000

 27 29  0     1  0            999 V2000
   -4.6013    0.5742   -0.8922 O   0  0  0  0  0  2           0  0  0
   -2.6441   -0.0207    2.4148 O   0  0  0  0  0  2           0  0  0
   -0.6185    0.0000    1.1993 N   0  0  0  0  0  3           0  0  0
   -0.6724   -0.0018   -1.1766 N   0  0  0  0  0  3           0  0  0
   -4.1072   -0.0143    0.0774 N   0  0  0  0  0  3           0  0  0
    1.4049    0.0000   -0.0000 N   0  0  0  0  0  3           0  0  0
   -2.6923   -0.0265   -2.3860 N   0  0  0  0  0  3           0  0  0
    3.3669   -3.7166    4.8158 N   0  0  0  0  0  3           0  0  0
   -1.9706   -0.0005    1.2034 C   0  0  0  0  0  4           0  0  0
    0.0000    0.0000    0.0000 C   0  0  0  0  0  4           0  0  0
   -2.0290    0.0165   -1.1598 C   0  0  0  0  0  4           0  0  0
   -2.7366    0.0123    0.0420 C   0  0  0  0  0  4           0  0  0
    2.3161   -0.0000    1.0589 C   0  0  0  0  0  4           0  0  0
    2.9712   -0.5784    3.3470 C   0  0  0  0  0  4           0  0  0
    2.0326   -0.5919    2.3011 C   0  0  0  0  0  4           0  0  0
    3.5657    0.6141    0.8859 C   0  0  0  0  0  4           0  0  0
    4.2059    0.0497    3.1462 C   0  0  0  0  0  4           0  0  0
    4.5019    0.6409    1.9201 C   0  0  0  0  0  4           0  0  0
   -1.7905   -0.0393    3.5586 C   0  0  0  0  0  4           0  0  0
    3.0493   -2.6023    4.7489 C   0  0  0  0  0  4           0  0  0
    2.6423   -1.1988    4.6739 C   0  0  0  0  0  4           0  0  0
   -2.6360   -0.0605    4.8306 C   0  0  1  0  0  4           0  0  0
   -3.5425   -1.3022    4.8811 C   0  0  0  0  0  4           0  0  0
   -1.7376    0.0059    6.0733 C   0  0  0  0  0  4           0  0  0
   -4.3524   -1.3579    6.1750 C   0  0  0  0  0  4           0  0  0
   -2.5522   -0.0485    7.3631 C   0  0  0  0  0  4           0  0  0
   -3.4567   -1.2755    7.4067 C   0  0  0  0  0  4           0  0  0
  1  5  2  0     0  0
  2  9  1  0     0  0
  2 19  1  0     0  0
  3  9  2  0     0  0
  3 10  1  0     0  0
  4 10  2  0     0  0
  4 11  1  0     0  0
  5 12  1  0     0  0
  6 10  1  0     0  0
  6 13  1  0     0  0
  7 11  1  0     0  0
  8 20  3  0     0  0
  9 12  1  0     0  0
 11 12  2  0     0  0
 13 15  1  0     0  0
 13 16  2  0     0  0
 14 15  2  0     0  0
 14 17  1  0     0  0
 14 21  1  0     0  0
 16 18  1  0     0  0
 17 18  2  0     0  0
 19 22  1  0     0  0
 20 21  1  0     0  0
 22 23  1  0     0  0
 22 24  1  0     0  0
 23 25  1  0     0  0
 24 26  1  0     0  0
 25 27  1  0     0  0
 26 27  1  0     0  0
M  END
> <Compound >
2

> <standard_type>
pIC50

> <# Confs.>
25

> <canonical_smiles>
N#CCC1=CC(NC2=NC(N)=C(N=O)C(OCC3CCCCC3)=N2)=CC=C1

> <standard_relation>
=

> <predicted_activity_value>
7.527243550682788

> <actual_activity_value>
7.481486060122112

> <Publication ID>
nan

> <standard_units>
nM

> hash
17599172884970068713

$$$$
2_
XXILIB    08252103513D 0   0.00000     0.00000

 27 29  0     1  0            999 V2000
   -4.6013    0.5742   -0.8922 O   0  0  0  0  0  2           0  0  0
   -2.6441   -0.0207    2.4148 O   0  0  0  0  0  2           0  0  0
   -0.6185    0.0000    1.1993 N   0  0  0  0  0  3           0  0  0
   -0.6724   -0.0018   -1.1766 N   0  0  0  0  0  3           0  0  0
   -4.1072   -0.0143    0.0774 N   0  0  0  0  0  3           0  0  0
    1.4049   -0.0000    0.0000 N   0  0  0  0  0  3           0  0  0
   -2.6923   -0.0265   -2.3860 N   0  0  0  0  0  3           0  0  0
    1.4764   -0.4866   -6.3123 N   0  0  0  0  0  3           0  0  0
   -1.9706   -0.0005    1.2034 C   0  0  0  0  0  4           0  0  0
    0.0000    0.0000    0.0000 C   0  0  0  0  0  4           0  0  0
   -2.0290    0.0165   -1.1598 C   0  0  0  0  0  4           0  0  0
   -2.7366    0.0123    0.0420 C   0  0  0  0  0  4           0  0  0
    2.3161    0.0000   -1.0589 C   0  0  0  0  0  4           0  0  0
    2.9712    0.5784   -3.3470 C   0  0  0  0  0  4           0  0  0
    2.0326    0.5919   -2.3011 C   0  0  0  0  0  4           0  0  0
    3.5657   -0.6141   -0.8859 C   0  0  0  0  0  4           0  0  0
    4.2059   -0.0497   -3.1462 C   0  0  0  0  0  4           0  0  0
    4.5019   -0.6409   -1.9201 C   0  0  0  0  0  4           0  0  0
   -1.7905   -0.0393    3.5586 C   0  0  0  0  0  4           0  0  0
    1.9912    0.2558   -5.5837 C   0  0  0  0  0  4           0  0  0
    2.6423    1.1988   -4.6739 C   0  0  0  0  0  4           0  0  0
   -2.6360   -0.0605    4.8306 C   0  0  1  0  0  4           0  0  0
   -1.7536   -0.0810    6.0905 C   0  0  0  0  0  4           0  0  0
   -3.5935    1.1386    4.8586 C   0  0  0  0  0  4           0  0  0
   -2.5915   -0.0489    7.3673 C   0  0  0  0  0  4           0  0  0
   -4.4293    1.1647    6.1358 C   0  0  0  0  0  4           0  0  0
   -3.5527    1.1353    7.3832 C   0  0  0  0  0  4           0  0  0
  1  5  2  0     0  0
  2  9  1  0     0  0
  2 19  1  0     0  0
  3  9  2  0     0  0
  3 10  1  0     0  0
  4 10  2  0     0  0
  4 11  1  0     0  0
  5 12  1  0     0  0
  6 10  1  0     0  0
  6 13  1  0     0  0
  7 11  1  0     0  0
  8 20  3  0     0  0
  9 12  1  0     0  0
 11 12  2  0     0  0
 13 15  1  0     0  0
 13 16  2  0     0  0
 14 15  2  0     0  0
 14 17  1  0     0  0
 14 21  1  0     0  0
 16 18  1  0     0  0
 17 18  2  0     0  0
 19 22  1  0     0  0
 20 21  1  0     0  0
 22 23  1  0     0  0
 22 24  1  0     0  0
 23 25  1  0     0  0
 24 26  1  0     0  0
 25 27  1  0     0  0
 26 27  1  0     0  0
M  END
> <Compound >
2

> <standard_type>
pIC50

> <# Confs.>
25

> <canonical_smiles>
N#CCC1=CC(NC2=NC(N)=C(N=O)C(OCC3CCCCC3)=N2)=CC=C1

> <standard_relation>
=

> <predicted_activity_value>
7.527243550682788

> <actual_activity_value>
7.481486060122112

> <Publication ID>
nan

> <standard_units>
nM

> hash
17599172884970068713

$$$$
2_
XXILIB    08252103513D 0   0.00000     0.00000

 27 29  0     1  0            999 V2000
   -4.6013    0.5742   -0.8922 O   0  0  0  0  0  2           0  0  0
   -2.6441   -0.0207    2.4148 O   0  0  0  0  0  2           0  0  0
   -0.6185    0.0000    1.1993 N   0  0  0  0  0  3           0  0  0
   -0.6724   -0.0018   -1.1766 N   0  0  0  0  0  3           0  0  0
   -4.1072   -0.0143    0.0774 N   0  0  0  0  0  3           0  0  0
    1.4049   -0.0000    0.0000 N   0  0  0  0  0  3           0  0  0
   -2.6923   -0.0265   -2.3860 N   0  0  0  0  0  3           0  0  0
    1.4764   -0.4866   -6.3123 N   0  0  0  0  0  3           0  0  0
   -1.9706   -0.0005    1.2034 C   0  0  0  0  0  4           0  0  0
    0.0000    0.0000    0.0000 C   0  0  0  0  0  4           0  0  0
   -2.0290    0.0165   -1.1598 C   0  0  0  0  0  4           0  0  0
   -2.7366    0.0123    0.0420 C   0  0  0  0  0  4           0  0  0
    2.3161    0.0000   -1.0589 C   0  0  0  0  0  4           0  0  0
    2.9712    0.5784   -3.3470 C   0  0  0  0  0  4           0  0  0
    2.0326    0.5919   -2.3011 C   0  0  0  0  0  4           0  0  0
    3.5657   -0.6141   -0.8859 C   0  0  0  0  0  4           0  0  0
    4.2059   -0.0497   -3.1462 C   0  0  0  0  0  4           0  0  0
    4.5019   -0.6409   -1.9201 C   0  0  0  0  0  4           0  0  0
   -1.7905   -0.0393    3.5586 C   0  0  0  0  0  4           0  0  0
    1.9912    0.2558   -5.5837 C   0  0  0  0  0  4           0  0  0
    2.6423    1.1988   -4.6739 C   0  0  0  0  0  4           0  0  0
   -2.6360   -0.0605    4.8306 C   0  0  1  0  0  4           0  0  0
   -3.5434    1.1782    4.9220 C   0  0  0  0  0  4           0  0  0
   -3.4678   -1.3484    4.9006 C   0  0  0  0  0  4           0  0  0
   -4.4303    1.1380    6.1649 C   0  0  0  0  0  4           0  0  0
   -4.3509   -1.3839    6.1453 C   0  0  0  0  0  4           0  0  0
   -5.2430   -0.1506    6.2382 C   0  0  0  0  0  4           0  0  0
  1  5  2  0     0  0
  2  9  1  0     0  0
  2 19  1  0     0  0
  3  9  2  0     0  0
  3 10  1  0     0  0
  4 10  2  0     0  0
  4 11  1  0     0  0
  5 12  1  0     0  0
  6 10  1  0     0  0
  6 13  1  0     0  0
  7 11  1  0     0  0
  8 20  3  0     0  0
  9 12  1  0     0  0
 11 12  2  0     0  0
 13 15  1  0     0  0
 13 16  2  0     0  0
 14 15  2  0     0  0
 14 17  1  0     0  0
 14 21  1  0     0  0
 16 18  1  0     0  0
 17 18  2  0     0  0
 19 22  1  0     0  0
 20 21  1  0     0  0
 22 23  1  0     0  0
 22 24  1  0     0  0
 23 25  1  0     0  0
 24 26  1  0     0  0
 25 27  1  0     0  0
 26 27  1  0     0  0
M  END
> <Compound >
2

> <standard_type>
pIC50

> <# Confs.>
25

> <canonical_smiles>
N#CCC1=CC(NC2=NC(N)=C(N=O)C(OCC3CCCCC3)=N2)=CC=C1

> <standard_relation>
=

> <predicted_activity_value>
7.527243550682788

> <actual_activity_value>
7.481486060122112

> <Publication ID>
nan

> <standard_units>
nM

> hash
17599172884970068713

$$$$
2_
XXILIB    08252103513D 0   0.00000     0.00000

 27 29  0     1  0            999 V2000
   -4.6013    0.5742   -0.8922 O   0  0  0  0  0  2           0  0  0
   -2.6441   -0.0207    2.4148 O   0  0  0  0  0  2           0  0  0
   -0.6185    0.0000    1.1993 N   0  0  0  0  0  3           0  0  0
   -0.6724   -0.0018   -1.1766 N   0  0  0  0  0  3           0  0  0
   -4.1072   -0.0143    0.0774 N   0  0  0  0  0  3           0  0  0
    1.4049   -0.0000    0.0000 N   0  0  0  0  0  3           0  0  0
   -2.6923   -0.0265   -2.3860 N   0  0  0  0  0  3           0  0  0
    3.3669    3.7166   -4.8158 N   0  0  0  0  0  3           0  0  0
   -1.9706   -0.0005    1.2034 C   0  0  0  0  0  4           0  0  0
    0.0000    0.0000    0.0000 C   0  0  0  0  0  4           0  0  0
   -2.0290    0.0165   -1.1598 C   0  0  0  0  0  4           0  0  0
   -2.7366    0.0123    0.0420 C   0  0  0  0  0  4           0  0  0
    2.3161    0.0000   -1.0589 C   0  0  0  0  0  4           0  0  0
    2.9712    0.5784   -3.3470 C   0  0  0  0  0  4           0  0  0
    2.0326    0.5919   -2.3011 C   0  0  0  0  0  4           0  0  0
    3.5657   -0.6141   -0.8859 C   0  0  0  0  0  4           0  0  0
    4.2059   -0.0497   -3.1462 C   0  0  0  0  0  4           0  0  0
    4.5019   -0.6409   -1.9201 C   0  0  0  0  0  4           0  0  0
   -1.7905   -0.0393    3.5586 C   0  0  0  0  0  4           0  0  0
    3.0493    2.6023   -4.7489 C   0  0  0  0  0  4           0  0  0
    2.6423    1.1988   -4.6739 C   0  0  0  0  0  4           0  0  0
   -2.6360   -0.0605    4.8306 C   0  0  1  0  0  4           0  0  0
   -1.7536   -0.0810    6.0905 C   0  0  0  0  0  4           0  0  0
   -3.5935    1.1386    4.8586 C   0  0  0  0  0  4           0  0  0
   -2.5915   -0.0489    7.3673 C   0  0  0  0  0  4           0  0  0
   -4.4293    1.1647    6.1358 C   0  0  0  0  0  4           0  0  0
   -3.5527    1.1353    7.3832 C   0  0  0  0  0  4           0  0  0
  1  5  2  0     0  0
  2  9  1  0     0  0
  2 19  1  0     0  0
  3  9  2  0     0  0
  3 10  1  0     0  0
  4 10  2  0     0  0
  4 11  1  0     0  0
  5 12  1  0     0  0
  6 10  1  0     0  0
  6 13  1  0     0  0
  7 11  1  0     0  0
  8 20  3  0     0  0
  9 12  1  0     0  0
 11 12  2  0     0  0
 13 15  1  0     0  0
 13 16  2  0     0  0
 14 15  2  0     0  0
 14 17  1  0     0  0
 14 21  1  0     0  0
 16 18  1  0     0  0
 17 18  2  0     0  0
 19 22  1  0     0  0
 20 21  1  0     0  0
 22 23  1  0     0  0
 22 24  1  0     0  0
 23 25  1  0     0  0
 24 26  1  0     0  0
 25 27  1  0     0  0
 26 27  1  0     0  0
M  END
> <Compound >
2

> <standard_type>
pIC50

> <# Confs.>
25

> <canonical_smiles>
N#CCC1=CC(NC2=NC(N)=C(N=O)C(OCC3CCCCC3)=N2)=CC=C1

> <standard_relation>
=

> <predicted_activity_value>
7.527243550682788

> <actual_activity_value>
7.481486060122112

> <Publication ID>
nan

> <standard_units>
nM

> hash
17599172884970068713

$$$$
2_
XXILIB    08252103513D 0   0.00000     0.00000

 27 29  0     1  0            999 V2000
   -4.6013    0.5742   -0.8922 O   0  0  0  0  0  2           0  0  0
   -2.6441   -0.0207    2.4148 O   0  0  0  0  0  2           0  0  0
   -0.6185    0.0000    1.1993 N   0  0  0  0  0  3           0  0  0
   -0.6724   -0.0018   -1.1766 N   0  0  0  0  0  3           0  0  0
   -4.1072   -0.0143    0.0774 N   0  0  0  0  0  3           0  0  0
    1.4049   -0.0000    0.0000 N   0  0  0  0  0  3           0  0  0
   -2.6923   -0.0265   -2.3860 N   0  0  0  0  0  3           0  0  0
    3.3669    3.7166   -4.8158 N   0  0  0  0  0  3           0  0  0
   -1.9706   -0.0005    1.2034 C   0  0  0  0  0  4           0  0  0
    0.0000    0.0000    0.0000 C   0  0  0  0  0  4           0  0  0
   -2.0290    0.0165   -1.1598 C   0  0  0  0  0  4           0  0  0
   -2.7366    0.0123    0.0420 C   0  0  0  0  0  4           0  0  0
    2.3161    0.0000   -1.0589 C   0  0  0  0  0  4           0  0  0
    2.9712    0.5784   -3.3470 C   0  0  0  0  0  4           0  0  0
    2.0326    0.5919   -2.3011 C   0  0  0  0  0  4           0  0  0
    3.5657   -0.6141   -0.8859 C   0  0  0  0  0  4           0  0  0
    4.2059   -0.0497   -3.1462 C   0  0  0  0  0  4           0  0  0
    4.5019   -0.6409   -1.9201 C   0  0  0  0  0  4           0  0  0
   -1.7905   -0.0393    3.5586 C   0  0  0  0  0  4           0  0  0
    3.0493    2.6023   -4.7489 C   0  0  0  0  0  4           0  0  0
    2.6423    1.1988   -4.6739 C   0  0  0  0  0  4           0  0  0
   -2.6360   -0.0605    4.8306 C   0  0  1  0  0  4           0  0  0
   -3.5434    1.1782    4.9220 C   0  0  0  0  0  4           0  0  0
   -3.4678   -1.3484    4.9006 C   0  0  0  0  0  4           0  0  0
   -4.4303    1.1380    6.1649 C   0  0  0  0  0  4           0  0  0
   -4.3509   -1.3839    6.1453 C   0  0  0  0  0  4           0  0  0
   -5.2430   -0.1506    6.2382 C   0  0  0  0  0  4           0  0  0
  1  5  2  0     0  0
  2  9  1  0     0  0
  2 19  1  0     0  0
  3  9  2  0     0  0
  3 10  1  0     0  0
  4 10  2  0     0  0
  4 11  1  0     0  0
  5 12  1  0     0  0
  6 10  1  0     0  0
  6 13  1  0     0  0
  7 11  1  0     0  0
  8 20  3  0     0  0
  9 12  1  0     0  0
 11 12  2  0     0  0
 13 15  1  0     0  0
 13 16  2  0     0  0
 14 15  2  0     0  0
 14 17  1  0     0  0
 14 21  1  0     0  0
 16 18  1  0     0  0
 17 18  2  0     0  0
 19 22  1  0     0  0
 20 21  1  0     0  0
 22 23  1  0     0  0
 22 24  1  0     0  0
 23 25  1  0     0  0
 24 26  1  0     0  0
 25 27  1  0     0  0
 26 27  1  0     0  0
M  END
> <Compound >
2

> <standard_type>
pIC50

> <# Confs.>
25

> <canonical_smiles>
N#CCC1=CC(NC2=NC(N)=C(N=O)C(OCC3CCCCC3)=N2)=CC=C1

> <standard_relation>
=

> <predicted_activity_value>
7.527243550682788

> <actual_activity_value>
7.481486060122112

> <Publication ID>
nan

> <standard_units>
nM

> hash
17599172884970068713

$$$$
2_
XXILIB    08252103513D 0   0.00000     0.00000

 27 29  0     1  0            999 V2000
   -4.6013    0.5742   -0.8922 O   0  0  0  0  0  2           0  0  0
   -2.6441   -0.0207    2.4148 O   0  0  0  0  0  2           0  0  0
   -0.6185    0.0000    1.1993 N   0  0  0  0  0  3           0  0  0
   -0.6724   -0.0018   -1.1766 N   0  0  0  0  0  3           0  0  0
   -4.1072   -0.0143    0.0774 N   0  0  0  0  0  3           0  0  0
    1.4049    0.0000   -0.0000 N   0  0  0  0  0  3           0  0  0
   -2.6923   -0.0265   -2.3860 N   0  0  0  0  0  3           0  0  0
    3.3357    3.7621    4.7123 N   0  0  0  0  0  3           0  0  0
   -1.9706   -0.0005    1.2034 C   0  0  0  0  0  4           0  0  0
    0.0000    0.0000    0.0000 C   0  0  0  0  0  4           0  0  0
   -2.0290    0.0165   -1.1598 C   0  0  0  0  0  4           0  0  0
   -2.7366    0.0123    0.0420 C   0  0  0  0  0  4           0  0  0
    2.3161    0.0000    1.0589 C   0  0  0  0  0  4           0  0  0
    2.9689    0.5733    3.3489 C   0  0  0  0  0  4           0  0  0
    2.0326    0.5919    2.3011 C   0  0  0  0  0  4           0  0  0
    3.5671   -0.6109    0.8847 C   0  0  0  0  0  4           0  0  0
    4.2116   -0.0365    3.1412 C   0  0  0  0  0  4           0  0  0
    4.5076   -0.6279    1.9152 C   0  0  0  0  0  4           0  0  0
   -1.7905   -0.0393    3.5586 C   0  0  0  0  0  4           0  0  0
    3.0352    2.6414    4.6853 C   0  0  0  0  0  4           0  0  0
    2.6553    1.2285    4.6627 C   0  0  0  0  0  4           0  0  0
   -2.6360   -0.0605    4.8306 C   0  0  1  0  0  4           0  0  0
   -1.7536   -0.0810    6.0905 C   0  0  0  0  0  4           0  0  0
   -3.5935    1.1386    4.8586 C   0  0  0  0  0  4           0  0  0
   -2.5915   -0.0489    7.3673 C   0  0  0  0  0  4           0  0  0
   -4.4293    1.1647    6.1358 C   0  0  0  0  0  4           0  0  0
   -3.5527    1.1353    7.3832 C   0  0  0  0  0  4           0  0  0
  1  5  2  0     0  0
  2  9  1  0     0  0
  2 19  1  0     0  0
  3  9  2  0     0  0
  3 10  1  0     0  0
  4 10  2  0     0  0
  4 11  1  0     0  0
  5 12  1  0     0  0
  6 10  1  0     0  0
  6 13  1  0     0  0
  7 11  1  0     0  0
  8 20  3  0     0  0
  9 12  1  0     0  0
 11 12  2  0     0  0
 13 15  1  0     0  0
 13 16  2  0     0  0
 14 15  2  0     0  0
 14 17  1  0     0  0
 14 21  1  0     0  0
 16 18  1  0     0  0
 17 18  2  0     0  0
 19 22  1  0     0  0
 20 21  1  0     0  0
 22 23  1  0     0  0
 22 24  1  0     0  0
 23 25  1  0     0  0
 24 26  1  0     0  0
 25 27  1  0     0  0
 26 27  1  0     0  0
M  END
> <Compound >
2

> <standard_type>
pIC50

> <# Confs.>
25

> <canonical_smiles>
N#CCC1=CC(NC2=NC(N)=C(N=O)C(OCC3CCCCC3)=N2)=CC=C1

> <standard_relation>
=

> <predicted_activity_value>
7.527243550682788

> <actual_activity_value>
7.481486060122112

> <Publication ID>
nan

> <standard_units>
nM

> hash
17599172884970068713

$$$$
2_
XXILIB    08252103513D 0   0.00000     0.00000

 27 29  0     1  0            999 V2000
   -4.6013    0.5742   -0.8922 O   0  0  0  0  0  2           0  0  0
   -2.6441   -0.0207    2.4148 O   0  0  0  0  0  2           0  0  0
   -0.6185    0.0000    1.1993 N   0  0  0  0  0  3           0  0  0
   -0.6724   -0.0018   -1.1766 N   0  0  0  0  0  3           0  0  0
   -4.1072   -0.0143    0.0774 N   0  0  0  0  0  3           0  0  0
    1.4049    0.0000   -0.0000 N   0  0  0  0  0  3           0  0  0
   -2.6923   -0.0265   -2.3860 N   0  0  0  0  0  3           0  0  0
    1.4764    0.4866    6.3123 N   0  0  0  0  0  3           0  0  0
   -1.9706   -0.0005    1.2034 C   0  0  0  0  0  4           0  0  0
    0.0000    0.0000    0.0000 C   0  0  0  0  0  4           0  0  0
   -2.0290    0.0165   -1.1598 C   0  0  0  0  0  4           0  0  0
   -2.7366    0.0123    0.0420 C   0  0  0  0  0  4           0  0  0
    2.3161   -0.0000    1.0589 C   0  0  0  0  0  4           0  0  0
    2.9712   -0.5784    3.3470 C   0  0  0  0  0  4           0  0  0
    2.0326   -0.5919    2.3011 C   0  0  0  0  0  4           0  0  0
    3.5657    0.6141    0.8859 C   0  0  0  0  0  4           0  0  0
    4.2059    0.0497    3.1462 C   0  0  0  0  0  4           0  0  0
    4.5019    0.6409    1.9201 C   0  0  0  0  0  4           0  0  0
   -1.7905   -0.0393    3.5586 C   0  0  0  0  0  4           0  0  0
    1.9912   -0.2558    5.5837 C   0  0  0  0  0  4           0  0  0
    2.6423   -1.1988    4.6739 C   0  0  0  0  0  4           0  0  0
   -2.6360   -0.0605    4.8306 C   0  0  1  0  0  4           0  0  0
   -1.7536   -0.0810    6.0905 C   0  0  0  0  0  4           0  0  0
   -3.5935    1.1386    4.8586 C   0  0  0  0  0  4           0  0  0
   -2.5915   -0.0489    7.3673 C   0  0  0  0  0  4           0  0  0
   -4.4293    1.1647    6.1358 C   0  0  0  0  0  4           0  0  0
   -3.5527    1.1353    7.3832 C   0  0  0  0  0  4           0  0  0
  1  5  2  0     0  0
  2  9  1  0     0  0
  2 19  1  0     0  0
  3  9  2  0     0  0
  3 10  1  0     0  0
  4 10  2  0     0  0
  4 11  1  0     0  0
  5 12  1  0     0  0
  6 10  1  0     0  0
  6 13  1  0     0  0
  7 11  1  0     0  0
  8 20  3  0     0  0
  9 12  1  0     0  0
 11 12  2  0     0  0
 13 15  1  0     0  0
 13 16  2  0     0  0
 14 15  2  0     0  0
 14 17  1  0     0  0
 14 21  1  0     0  0
 16 18  1  0     0  0
 17 18  2  0     0  0
 19 22  1  0     0  0
 20 21  1  0     0  0
 22 23  1  0     0  0
 22 24  1  0     0  0
 23 25  1  0     0  0
 24 26  1  0     0  0
 25 27  1  0     0  0
 26 27  1  0     0  0
M  END
> <Compound >
2

> <standard_type>
pIC50

> <# Confs.>
25

> <canonical_smiles>
N#CCC1=CC(NC2=NC(N)=C(N=O)C(OCC3CCCCC3)=N2)=CC=C1

> <standard_relation>
=

> <predicted_activity_value>
7.527243550682788

> <actual_activity_value>
7.481486060122112

> <Publication ID>
nan

> <standard_units>
nM

> hash
17599172884970068713

$$$$
2_
XXILIB    08252103513D 0   0.00000     0.00000

 27 29  0     1  0            999 V2000
   -4.6013    0.5742   -0.8922 O   0  0  0  0  0  2           0  0  0
   -2.6441   -0.0207    2.4148 O   0  0  0  0  0  2           0  0  0
   -0.6185    0.0000    1.1993 N   0  0  0  0  0  3           0  0  0
   -0.6724   -0.0018   -1.1766 N   0  0  0  0  0  3           0  0  0
   -4.1072   -0.0143    0.0774 N   0  0  0  0  0  3           0  0  0
    1.4049    0.0000   -0.0000 N   0  0  0  0  0  3           0  0  0
   -2.6923   -0.0265   -2.3860 N   0  0  0  0  0  3           0  0  0
    3.3669   -3.7166    4.8158 N   0  0  0  0  0  3           0  0  0
   -1.9706   -0.0005    1.2034 C   0  0  0  0  0  4           0  0  0
    0.0000    0.0000    0.0000 C   0  0  0  0  0  4           0  0  0
   -2.0290    0.0165   -1.1598 C   0  0  0  0  0  4           0  0  0
   -2.7366    0.0123    0.0420 C   0  0  0  0  0  4           0  0  0
    2.3161   -0.0000    1.0589 C   0  0  0  0  0  4           0  0  0
    2.9712   -0.5784    3.3470 C   0  0  0  0  0  4           0  0  0
    2.0326   -0.5919    2.3011 C   0  0  0  0  0  4           0  0  0
    3.5657    0.6141    0.8859 C   0  0  0  0  0  4           0  0  0
    4.2059    0.0497    3.1462 C   0  0  0  0  0  4           0  0  0
    4.5019    0.6409    1.9201 C   0  0  0  0  0  4           0  0  0
   -1.7905   -0.0393    3.5586 C   0  0  0  0  0  4           0  0  0
    3.0493   -2.6023    4.7489 C   0  0  0  0  0  4           0  0  0
    2.6423   -1.1988    4.6739 C   0  0  0  0  0  4           0  0  0
   -2.6360   -0.0605    4.8306 C   0  0  1  0  0  4           0  0  0
   -1.7536   -0.0810    6.0905 C   0  0  0  0  0  4           0  0  0
   -3.5935    1.1386    4.8586 C   0  0  0  0  0  4           0  0  0
   -2.5915   -0.0489    7.3673 C   0  0  0  0  0  4           0  0  0
   -4.4293    1.1647    6.1358 C   0  0  0  0  0  4           0  0  0
   -3.5527    1.1353    7.3832 C   0  0  0  0  0  4           0  0  0
  1  5  2  0     0  0
  2  9  1  0     0  0
  2 19  1  0     0  0
  3  9  2  0     0  0
  3 10  1  0     0  0
  4 10  2  0     0  0
  4 11  1  0     0  0
  5 12  1  0     0  0
  6 10  1  0     0  0
  6 13  1  0     0  0
  7 11  1  0     0  0
  8 20  3  0     0  0
  9 12  1  0     0  0
 11 12  2  0     0  0
 13 15  1  0     0  0
 13 16  2  0     0  0
 14 15  2  0     0  0
 14 17  1  0     0  0
 14 21  1  0     0  0
 16 18  1  0     0  0
 17 18  2  0     0  0
 19 22  1  0     0  0
 20 21  1  0     0  0
 22 23  1  0     0  0
 22 24  1  0     0  0
 23 25  1  0     0  0
 24 26  1  0     0  0
 25 27  1  0     0  0
 26 27  1  0     0  0
M  END
> <Compound >
2

> <standard_type>
pIC50

> <# Confs.>
25

> <canonical_smiles>
N#CCC1=CC(NC2=NC(N)=C(N=O)C(OCC3CCCCC3)=N2)=CC=C1

> <standard_relation>
=

> <predicted_activity_value>
7.527243550682788

> <actual_activity_value>
7.481486060122112

> <Publication ID>
nan

> <standard_units>
nM

> hash
17599172884970068713

$$$$
2_
XXILIB    08252103513D 0   0.00000     0.00000

 27 29  0     1  0            999 V2000
   -4.6013    0.5742   -0.8922 O   0  0  0  0  0  2           0  0  0
   -2.6441   -0.0207    2.4148 O   0  0  0  0  0  2           0  0  0
   -0.6185    0.0000    1.1993 N   0  0  0  0  0  3           0  0  0
   -0.6724   -0.0018   -1.1766 N   0  0  0  0  0  3           0  0  0
   -4.1072   -0.0143    0.0774 N   0  0  0  0  0  3           0  0  0
    1.4049    0.0000   -0.0000 N   0  0  0  0  0  3           0  0  0
   -2.6923   -0.0265   -2.3860 N   0  0  0  0  0  3           0  0  0
    3.3357    3.7621    4.7123 N   0  0  0  0  0  3           0  0  0
   -1.9706   -0.0005    1.2034 C   0  0  0  0  0  4           0  0  0
    0.0000    0.0000    0.0000 C   0  0  0  0  0  4           0  0  0
   -2.0290    0.0165   -1.1598 C   0  0  0  0  0  4           0  0  0
   -2.7366    0.0123    0.0420 C   0  0  0  0  0  4           0  0  0
    2.3161    0.0000    1.0589 C   0  0  0  0  0  4           0  0  0
    2.9689    0.5733    3.3489 C   0  0  0  0  0  4           0  0  0
    2.0326    0.5919    2.3011 C   0  0  0  0  0  4           0  0  0
    3.5671   -0.6109    0.8847 C   0  0  0  0  0  4           0  0  0
    4.2116   -0.0365    3.1412 C   0  0  0  0  0  4           0  0  0
    4.5076   -0.6279    1.9152 C   0  0  0  0  0  4           0  0  0
   -1.7905   -0.0393    3.5586 C   0  0  0  0  0  4           0  0  0
    3.0352    2.6414    4.6853 C   0  0  0  0  0  4           0  0  0
    2.6553    1.2285    4.6627 C   0  0  0  0  0  4           0  0  0
   -2.6360   -0.0605    4.8306 C   0  0  1  0  0  4           0  0  0
   -3.5434    1.1782    4.9220 C   0  0  0  0  0  4           0  0  0
   -3.4678   -1.3484    4.9006 C   0  0  0  0  0  4           0  0  0
   -4.4303    1.1380    6.1649 C   0  0  0  0  0  4           0  0  0
   -4.3509   -1.3839    6.1453 C   0  0  0  0  0  4           0  0  0
   -5.2430   -0.1506    6.2382 C   0  0  0  0  0  4           0  0  0
  1  5  2  0     0  0
  2  9  1  0     0  0
  2 19  1  0     0  0
  3  9  2  0     0  0
  3 10  1  0     0  0
  4 10  2  0     0  0
  4 11  1  0     0  0
  5 12  1  0     0  0
  6 10  1  0     0  0
  6 13  1  0     0  0
  7 11  1  0     0  0
  8 20  3  0     0  0
  9 12  1  0     0  0
 11 12  2  0     0  0
 13 15  1  0     0  0
 13 16  2  0     0  0
 14 15  2  0     0  0
 14 17  1  0     0  0
 14 21  1  0     0  0
 16 18  1  0     0  0
 17 18  2  0     0  0
 19 22  1  0     0  0
 20 21  1  0     0  0
 22 23  1  0     0  0
 22 24  1  0     0  0
 23 25  1  0     0  0
 24 26  1  0     0  0
 25 27  1  0     0  0
 26 27  1  0     0  0
M  END
> <Compound >
2

> <standard_type>
pIC50

> <# Confs.>
25

> <canonical_smiles>
N#CCC1=CC(NC2=NC(N)=C(N=O)C(OCC3CCCCC3)=N2)=CC=C1

> <standard_relation>
=

> <predicted_activity_value>
7.527243550682788

> <actual_activity_value>
7.481486060122112

> <Publication ID>
nan

> <standard_units>
nM

> hash
17599172884970068713

$$$$
2_
XXILIB    08252103513D 0   0.00000     0.00000

 27 29  0     1  0            999 V2000
   -4.6013    0.5742   -0.8922 O   0  0  0  0  0  2           0  0  0
   -2.6441   -0.0207    2.4148 O   0  0  0  0  0  2           0  0  0
   -0.6185    0.0000    1.1993 N   0  0  0  0  0  3           0  0  0
   -0.6724   -0.0018   -1.1766 N   0  0  0  0  0  3           0  0  0
   -4.1072   -0.0143    0.0774 N   0  0  0  0  0  3           0  0  0
    1.4049    0.0000   -0.0000 N   0  0  0  0  0  3           0  0  0
   -2.6923   -0.0265   -2.3860 N   0  0  0  0  0  3           0  0  0
    3.3669   -3.7166    4.8158 N   0  0  0  0  0  3           0  0  0
   -1.9706   -0.0005    1.2034 C   0  0  0  0  0  4           0  0  0
    0.0000    0.0000    0.0000 C   0  0  0  0  0  4           0  0  0
   -2.0290    0.0165   -1.1598 C   0  0  0  0  0  4           0  0  0
   -2.7366    0.0123    0.0420 C   0  0  0  0  0  4           0  0  0
    2.3161   -0.0000    1.0589 C   0  0  0  0  0  4           0  0  0
    2.9712   -0.5784    3.3470 C   0  0  0  0  0  4           0  0  0
    2.0326   -0.5919    2.3011 C   0  0  0  0  0  4           0  0  0
    3.5657    0.6141    0.8859 C   0  0  0  0  0  4           0  0  0
    4.2059    0.0497    3.1462 C   0  0  0  0  0  4           0  0  0
    4.5019    0.6409    1.9201 C   0  0  0  0  0  4           0  0  0
   -1.7905   -0.0393    3.5586 C   0  0  0  0  0  4           0  0  0
    3.0493   -2.6023    4.7489 C   0  0  0  0  0  4           0  0  0
    2.6423   -1.1988    4.6739 C   0  0  0  0  0  4           0  0  0
   -2.6360   -0.0605    4.8306 C   0  0  1  0  0  4           0  0  0
   -3.5434    1.1782    4.9220 C   0  0  0  0  0  4           0  0  0
   -3.4678   -1.3484    4.9006 C   0  0  0  0  0  4           0  0  0
   -4.4303    1.1380    6.1649 C   0  0  0  0  0  4           0  0  0
   -4.3509   -1.3839    6.1453 C   0  0  0  0  0  4           0  0  0
   -5.2430   -0.1506    6.2382 C   0  0  0  0  0  4           0  0  0
  1  5  2  0     0  0
  2  9  1  0     0  0
  2 19  1  0     0  0
  3  9  2  0     0  0
  3 10  1  0     0  0
  4 10  2  0     0  0
  4 11  1  0     0  0
  5 12  1  0     0  0
  6 10  1  0     0  0
  6 13  1  0     0  0
  7 11  1  0     0  0
  8 20  3  0     0  0
  9 12  1  0     0  0
 11 12  2  0     0  0
 13 15  1  0     0  0
 13 16  2  0     0  0
 14 15  2  0     0  0
 14 17  1  0     0  0
 14 21  1  0     0  0
 16 18  1  0     0  0
 17 18  2  0     0  0
 19 22  1  0     0  0
 20 21  1  0     0  0
 22 23  1  0     0  0
 22 24  1  0     0  0
 23 25  1  0     0  0
 24 26  1  0     0  0
 25 27  1  0     0  0
 26 27  1  0     0  0
M  END
> <Compound >
2

> <standard_type>
pIC50

> <# Confs.>
25

> <canonical_smiles>
N#CCC1=CC(NC2=NC(N)=C(N=O)C(OCC3CCCCC3)=N2)=CC=C1

> <standard_relation>
=

> <predicted_activity_value>
7.527243550682788

> <actual_activity_value>
7.481486060122112

> <Publication ID>
nan

> <standard_units>
nM

> hash
17599172884970068713

$$$$
2_
XXILIB    08252103513D 0   0.00000     0.00000

 27 29  0     1  0            999 V2000
   -4.6013    0.5742   -0.8922 O   0  0  0  0  0  2           0  0  0
   -2.6441   -0.0207    2.4148 O   0  0  0  0  0  2           0  0  0
   -0.6185   -0.0000    1.1993 N   0  0  0  0  0  3           0  0  0
   -0.6724   -0.0018   -1.1766 N   0  0  0  0  0  3           0  0  0
   -4.1072   -0.0143    0.0774 N   0  0  0  0  0  3           0  0  0
    1.4049    0.0000   -0.0000 N   0  0  0  0  0  3           0  0  0
   -2.6923   -0.0265   -2.3860 N   0  0  0  0  0  3           0  0  0
    1.5541   -0.4258    6.3758 N   0  0  0  0  0  3           0  0  0
   -1.9706   -0.0005    1.2034 C   0  0  0  0  0  4           0  0  0
    0.0000    0.0000    0.0000 C   0  0  0  0  0  4           0  0  0
   -2.0290    0.0165   -1.1598 C   0  0  0  0  0  4           0  0  0
   -2.7366    0.0123    0.0420 C   0  0  0  0  0  4           0  0  0
    2.3161    0.0000    1.0589 C   0  0  0  0  0  4           0  0  0
    2.9689    0.5733    3.3489 C   0  0  0  0  0  4           0  0  0
    2.0326    0.5919    2.3011 C   0  0  0  0  0  4           0  0  0
    3.5671   -0.6109    0.8847 C   0  0  0  0  0  4           0  0  0
    4.2116   -0.0365    3.1412 C   0  0  0  0  0  4           0  0  0
    4.5076   -0.6279    1.9152 C   0  0  0  0  0  4           0  0  0
   -1.9427   -0.6888    3.4631 C   0  0  0  0  0  4           0  0  0
    2.0426    0.3020    5.6152 C   0  0  0  0  0  4           0  0  0
    2.6553    1.2285    4.6627 C   0  0  0  0  0  4           0  0  0
   -2.9429   -1.3073    4.4380 C   0  0  1  0  0  4           0  0  0
   -3.8534   -2.3286    3.7351 C   0  0  0  0  0  4           0  0  0
   -2.2094   -1.9573    5.6191 C   0  0  0  0  0  4           0  0  0
   -4.8212   -2.9903    4.7142 C   0  0  0  0  0  4           0  0  0
   -3.1814   -2.6154    6.5950 C   0  0  0  0  0  4           0  0  0
   -4.0888   -3.6208    5.8942 C   0  0  0  0  0  4           0  0  0
  1  5  2  0     0  0
  2  9  1  0     0  0
  2 19  1  0     0  0
  3  9  2  0     0  0
  3 10  1  0     0  0
  4 10  2  0     0  0
  4 11  1  0     0  0
  5 12  1  0     0  0
  6 10  1  0     0  0
  6 13  1  0     0  0
  7 11  1  0     0  0
  8 20  3  0     0  0
  9 12  1  0     0  0
 11 12  2  0     0  0
 13 15  1  0     0  0
 13 16  2  0     0  0
 14 15  2  0     0  0
 14 17  1  0     0  0
 14 21  1  0     0  0
 16 18  1  0     0  0
 17 18  2  0     0  0
 19 22  1  0     0  0
 20 21  1  0     0  0
 22 23  1  0     0  0
 22 24  1  0     0  0
 23 25  1  0     0  0
 24 26  1  0     0  0
 25 27  1  0     0  0
 26 27  1  0     0  0
M  END
> <Compound >
2

> <standard_type>
pIC50

> <# Confs.>
25

> <canonical_smiles>
N#CCC1=CC(NC2=NC(N)=C(N=O)C(OCC3CCCCC3)=N2)=CC=C1

> <standard_relation>
=

> <predicted_activity_value>
7.527243550682788

> <actual_activity_value>
7.481486060122112

> <Publication ID>
nan

> <standard_units>
nM

> hash
17599172884970068713

$$$$
5_
XXILIB    08252103513D 0   0.00000     0.00000

 30 32  0     1  0            999 V2000
   -0.9741   -0.0032    8.0625 S   0  0  1  0  0  6           0  0  0
    0.4597    0.2105    8.0862 O   0  0  0  0  0  2           0  0  0
   -1.5635   -1.1708    8.6887 O   0  0  0  0  0  2           0  0  0
    1.0735    0.8743   -4.2700 O   0  0  0  0  0  2           0  0  0
    1.3870   -0.0000    0.0000 O   0  0  0  0  0  2           0  0  0
   -0.6530   -0.0000    1.1842 N   0  0  0  0  0  3           0  0  0
   -2.7112   -0.1212    0.0048 N   0  0  0  0  0  3           0  0  0
   -1.7609    1.3989    8.6302 N   0  0  0  0  0  3           0  0  0
    0.3701    1.0611   -3.0778 N   0  0  0  0  0  3           0  0  0
   -2.7258   -0.0779    2.3596 N   0  0  0  0  0  3           0  0  0
   -2.8135   -0.1777   -2.3397 N   0  0  0  0  0  3           0  0  0
   -1.4850    0.0080    6.3738 C   0  0  0  0  0  4           0  0  0
    0.0000    0.0000    0.0000 C   0  0  0  0  0  4           0  0  0
   -2.0018   -0.0641    1.1555 C   0  0  0  0  0  4           0  0  0
   -2.0497   -0.1032   -1.1794 C   0  0  0  0  0  4           0  0  0
   -2.2903   -0.0349    3.6860 C   0  0  0  0  0  4           0  0  0
   -0.6576   -0.0563   -1.2222 C   0  0  0  0  0  4           0  0  0
   -2.6573   -0.6535    6.0173 C   0  0  0  0  0  4           0  0  0
   -0.7021    0.6383    5.4108 C   0  0  0  0  0  4           0  0  0
   -3.0557   -0.6682    4.6792 C   0  0  0  0  0  4           0  0  0
   -1.1079    0.6160    4.0730 C   0  0  0  0  0  4           0  0  0
    1.9722   -0.0000    1.3020 C   0  0  0  0  0  4           0  0  0
    0.0908   -0.0741   -2.5071 C   0  0  0  0  0  4           0  0  0
    3.4918    0.0000    1.1543 C   0  0  1  0  0  4           0  0  0
    3.9829    1.2386    0.3880 C   0  0  0  0  0  4           0  0  0
    4.1902   -0.0888    2.5208 C   0  0  0  0  0  4           0  0  0
    5.5028    1.2373    0.2366 C   0  0  0  0  0  4           0  0  0
    5.7106   -0.0926    2.3736 C   0  0  0  0  0  4           0  0  0
    6.2035    1.1178    1.5865 C   0  0  0  0  0  4           0  0  0
    0.5018   -1.4090   -3.1035 C   0  0  0  0  0  4           0  0  0
  1  2  2  0     0  0
  1  3  2  0     0  0
  1  8  1  0     0  0
  1 12  1  0     0  0
  4  9  1  0     0  0
  5 13  1  0     0  0
  5 22  1  0     0  0
  6 13  2  0     0  0
  6 14  1  0     0  0
  7 14  2  0     0  0
  7 15  1  0     0  0
  9 23  2  0     0  0
 10 14  1  0     0  0
 10 16  1  0     0  0
 11 15  1  0     0  0
 12 18  2  0     0  0
 12 19  1  0     0  0
 13 17  1  0     0  0
 15 17  2  0     0  0
 16 20  2  0     0  0
 16 21  1  0     0  0
 17 23  1  0     0  0
 18 20  1  0     0  0
 19 21  2  0     0  0
 22 24  1  0     0  0
 23 30  1  0     0  0
 24 25  1  0     0  0
 24 26  1  0     0  0
 25 27  1  0     0  0
 26 28  1  0     0  0
 27 29  1  0     0  0
 28 29  1  0     0  0
M  END
> <Compound >
5

> <standard_type>
pIC50

> <# Confs.>
25

> <canonical_smiles>
NC1=C(/C(C)=N/O)C(OCC2CCCCC2)=NC(NC3=CC=C(S(=O)(N)=O)C=C3)=N1

> <standard_relation>
=

> <predicted_activity_value>
6.724919101543142

> <actual_activity_value>
6.931814138253839

> <Publication ID>
nan

> <standard_units>
nM

> hash
9398626533695141173

$$$$
5_
XXILIB    08252103513D 0   0.00000     0.00000

 30 32  0     1  0            999 V2000
   -0.9741   -0.0032    8.0625 S   0  0  1  0  0  6           0  0  0
    0.4597    0.2105    8.0862 O   0  0  0  0  0  2           0  0  0
   -1.5635   -1.1708    8.6887 O   0  0  0  0  0  2           0  0  0
    1.0735    0.8743   -4.2700 O   0  0  0  0  0  2           0  0  0
    1.3870   -0.0000    0.0000 O   0  0  0  0  0  2           0  0  0
   -0.6530   -0.0000    1.1842 N   0  0  0  0  0  3           0  0  0
   -2.7112   -0.1212    0.0048 N   0  0  0  0  0  3           0  0  0
   -1.7609    1.3989    8.6302 N   0  0  0  0  0  3           0  0  0
    0.3701    1.0611   -3.0778 N   0  0  0  0  0  3           0  0  0
   -2.7258   -0.0779    2.3596 N   0  0  0  0  0  3           0  0  0
   -2.8135   -0.1777   -2.3397 N   0  0  0  0  0  3           0  0  0
   -1.4850    0.0080    6.3738 C   0  0  0  0  0  4           0  0  0
    0.0000    0.0000    0.0000 C   0  0  0  0  0  4           0  0  0
   -2.0018   -0.0641    1.1555 C   0  0  0  0  0  4           0  0  0
   -2.0497   -0.1032   -1.1794 C   0  0  0  0  0  4           0  0  0
   -2.2903   -0.0349    3.6860 C   0  0  0  0  0  4           0  0  0
   -0.6576   -0.0563   -1.2222 C   0  0  0  0  0  4           0  0  0
   -2.6573   -0.6535    6.0173 C   0  0  0  0  0  4           0  0  0
   -0.7021    0.6383    5.4108 C   0  0  0  0  0  4           0  0  0
   -3.0557   -0.6682    4.6792 C   0  0  0  0  0  4           0  0  0
   -1.1079    0.6160    4.0730 C   0  0  0  0  0  4           0  0  0
    1.9722   -0.0000    1.3020 C   0  0  0  0  0  4           0  0  0
    0.0908   -0.0741   -2.5071 C   0  0  0  0  0  4           0  0  0
    3.4918    0.0000    1.1543 C   0  0  1  0  0  4           0  0  0
    3.9829   -1.2386    0.3880 C   0  0  0  0  0  4           0  0  0
    3.9905    1.2809    0.4659 C   0  0  0  0  0  4           0  0  0
    5.5035   -1.2411    0.2432 C   0  0  0  0  0  4           0  0  0
    5.5111    1.2832    0.3211 C   0  0  0  0  0  4           0  0  0
    6.0094    0.0408   -0.4110 C   0  0  0  0  0  4           0  0  0
    0.5018   -1.4090   -3.1035 C   0  0  0  0  0  4           0  0  0
  1  2  2  0     0  0
  1  3  2  0     0  0
  1  8  1  0     0  0
  1 12  1  0     0  0
  4  9  1  0     0  0
  5 13  1  0     0  0
  5 22  1  0     0  0
  6 13  2  0     0  0
  6 14  1  0     0  0
  7 14  2  0     0  0
  7 15  1  0     0  0
  9 23  2  0     0  0
 10 14  1  0     0  0
 10 16  1  0     0  0
 11 15  1  0     0  0
 12 18  2  0     0  0
 12 19  1  0     0  0
 13 17  1  0     0  0
 15 17  2  0     0  0
 16 20  2  0     0  0
 16 21  1  0     0  0
 17 23  1  0     0  0
 18 20  1  0     0  0
 19 21  2  0     0  0
 22 24  1  0     0  0
 23 30  1  0     0  0
 24 25  1  0     0  0
 24 26  1  0     0  0
 25 27  1  0     0  0
 26 28  1  0     0  0
 27 29  1  0     0  0
 28 29  1  0     0  0
M  END
> <Compound >
5

> <standard_type>
pIC50

> <# Confs.>
25

> <canonical_smiles>
NC1=C(/C(C)=N/O)C(OCC2CCCCC2)=NC(NC3=CC=C(S(=O)(N)=O)C=C3)=N1

> <standard_relation>
=

> <predicted_activity_value>
6.724919101543142

> <actual_activity_value>
6.931814138253839

> <Publication ID>
nan

> <standard_units>
nM

> hash
9398626533695141173

$$$$
5_
XXILIB    08252103513D 0   0.00000     0.00000

 30 32  0     1  0            999 V2000
   -0.9741   -0.0032    8.0625 S   0  0  1  0  0  6           0  0  0
    0.4597    0.2105    8.0862 O   0  0  0  0  0  2           0  0  0
   -1.5635   -1.1708    8.6887 O   0  0  0  0  0  2           0  0  0
    1.0735    0.8743   -4.2700 O   0  0  0  0  0  2           0  0  0
    1.3870   -0.0000    0.0000 O   0  0  0  0  0  2           0  0  0
   -0.6530   -0.0000    1.1842 N   0  0  0  0  0  3           0  0  0
   -2.7112   -0.1212    0.0048 N   0  0  0  0  0  3           0  0  0
   -1.7609    1.3989    8.6302 N   0  0  0  0  0  3           0  0  0
    0.3701    1.0611   -3.0778 N   0  0  0  0  0  3           0  0  0
   -2.7258   -0.0779    2.3596 N   0  0  0  0  0  3           0  0  0
   -2.8135   -0.1777   -2.3397 N   0  0  0  0  0  3           0  0  0
   -1.4850    0.0080    6.3738 C   0  0  0  0  0  4           0  0  0
    0.0000    0.0000    0.0000 C   0  0  0  0  0  4           0  0  0
   -2.0018   -0.0641    1.1555 C   0  0  0  0  0  4           0  0  0
   -2.0497   -0.1032   -1.1794 C   0  0  0  0  0  4           0  0  0
   -2.2903   -0.0349    3.6860 C   0  0  0  0  0  4           0  0  0
   -0.6576   -0.0563   -1.2222 C   0  0  0  0  0  4           0  0  0
   -2.6573   -0.6535    6.0173 C   0  0  0  0  0  4           0  0  0
   -0.7021    0.6383    5.4108 C   0  0  0  0  0  4           0  0  0
   -3.0557   -0.6682    4.6792 C   0  0  0  0  0  4           0  0  0
   -1.1079    0.6160    4.0730 C   0  0  0  0  0  4           0  0  0
    1.9722   -0.0000    1.3020 C   0  0  0  0  0  4           0  0  0
    0.0908   -0.0741   -2.5071 C   0  0  0  0  0  4           0  0  0
    3.4918    0.0000    1.1543 C   0  0  1  0  0  4           0  0  0
    4.1905   -0.0000    2.5234 C   0  0  0  0  0  4           0  0  0
    3.9756   -1.1920    0.3127 C   0  0  0  0  0  4           0  0  0
    5.7108    0.0039    2.3762 C   0  0  0  0  0  4           0  0  0
    5.4956   -1.1906    0.1614 C   0  0  0  0  0  4           0  0  0
    6.1967   -1.1587    1.5161 C   0  0  0  0  0  4           0  0  0
    0.5018   -1.4090   -3.1035 C   0  0  0  0  0  4           0  0  0
  1  2  2  0     0  0
  1  3  2  0     0  0
  1  8  1  0     0  0
  1 12  1  0     0  0
  4  9  1  0     0  0
  5 13  1  0     0  0
  5 22  1  0     0  0
  6 13  2  0     0  0
  6 14  1  0     0  0
  7 14  2  0     0  0
  7 15  1  0     0  0
  9 23  2  0     0  0
 10 14  1  0     0  0
 10 16  1  0     0  0
 11 15  1  0     0  0
 12 18  2  0     0  0
 12 19  1  0     0  0
 13 17  1  0     0  0
 15 17  2  0     0  0
 16 20  2  0     0  0
 16 21  1  0     0  0
 17 23  1  0     0  0
 18 20  1  0     0  0
 19 21  2  0     0  0
 22 24  1  0     0  0
 23 30  1  0     0  0
 24 25  1  0     0  0
 24 26  1  0     0  0
 25 27  1  0     0  0
 26 28  1  0     0  0
 27 29  1  0     0  0
 28 29  1  0     0  0
M  END
> <Compound >
5

> <standard_type>
pIC50

> <# Confs.>
25

> <canonical_smiles>
NC1=C(/C(C)=N/O)C(OCC2CCCCC2)=NC(NC3=CC=C(S(=O)(N)=O)C=C3)=N1

> <standard_relation>
=

> <predicted_activity_value>
6.724919101543142

> <actual_activity_value>
6.931814138253839

> <Publication ID>
nan

> <standard_units>
nM

> hash
9398626533695141173

$$$$
5_
XXILIB    08252103513D 0   0.00000     0.00000

 30 32  0     1  0            999 V2000
   -1.0106    0.1505    8.0696 S   0  0  1  0  0  6           0  0  0
   -0.0444   -0.9081    8.2879 O   0  0  0  0  0  2           0  0  0
   -2.2238    0.2263    8.8602 O   0  0  0  0  0  2           0  0  0
    1.0735    0.8743   -4.2700 O   0  0  0  0  0  2           0  0  0
    1.3870   -0.0000    0.0000 O   0  0  0  0  0  2           0  0  0
   -0.6530   -0.0000    1.1842 N   0  0  0  0  0  3           0  0  0
   -2.7112   -0.1212    0.0048 N   0  0  0  0  0  3           0  0  0
   -0.2135    1.6572    8.1138 N   0  0  0  0  0  3           0  0  0
    0.3701    1.0611   -3.0778 N   0  0  0  0  0  3           0  0  0
   -2.7258   -0.0779    2.3596 N   0  0  0  0  0  3           0  0  0
   -2.8135   -0.1777   -2.3397 N   0  0  0  0  0  3           0  0  0
   -1.4866    0.0932    6.3716 C   0  0  0  0  0  4           0  0  0
    0.0000    0.0000    0.0000 C   0  0  0  0  0  4           0  0  0
   -2.0018   -0.0641    1.1555 C   0  0  0  0  0  4           0  0  0
   -2.0497   -0.1032   -1.1794 C   0  0  0  0  0  4           0  0  0
   -2.2903   -0.0349    3.6860 C   0  0  0  0  0  4           0  0  0
   -0.6576   -0.0563   -1.2222 C   0  0  0  0  0  4           0  0  0
   -2.7203    0.6192    5.9968 C   0  0  0  0  0  4           0  0  0
   -0.6527   -0.5056    5.4317 C   0  0  0  0  0  4           0  0  0
   -3.1135    0.5567    4.6585 C   0  0  0  0  0  4           0  0  0
   -1.0562   -0.5657    4.0943 C   0  0  0  0  0  4           0  0  0
    1.9722   -0.0000    1.3020 C   0  0  0  0  0  4           0  0  0
    0.0908   -0.0741   -2.5071 C   0  0  0  0  0  4           0  0  0
    3.4918    0.0000    1.1543 C   0  0  1  0  0  4           0  0  0
    3.9829    1.2386    0.3880 C   0  0  0  0  0  4           0  0  0
    4.1902   -0.0888    2.5208 C   0  0  0  0  0  4           0  0  0
    5.5028    1.2373    0.2366 C   0  0  0  0  0  4           0  0  0
    5.7106   -0.0926    2.3736 C   0  0  0  0  0  4           0  0  0
    6.2035    1.1178    1.5865 C   0  0  0  0  0  4           0  0  0
    0.5018   -1.4090   -3.1035 C   0  0  0  0  0  4           0  0  0
  1  2  2  0     0  0
  1  3  2  0     0  0
  1  8  1  0     0  0
  1 12  1  0     0  0
  4  9  1  0     0  0
  5 13  1  0     0  0
  5 22  1  0     0  0
  6 13  2  0     0  0
  6 14  1  0     0  0
  7 14  2  0     0  0
  7 15  1  0     0  0
  9 23  2  0     0  0
 10 14  1  0     0  0
 10 16  1  0     0  0
 11 15  1  0     0  0
 12 18  2  0     0  0
 12 19  1  0     0  0
 13 17  1  0     0  0
 15 17  2  0     0  0
 16 20  2  0     0  0
 16 21  1  0     0  0
 17 23  1  0     0  0
 18 20  1  0     0  0
 19 21  2  0     0  0
 22 24  1  0     0  0
 23 30  1  0     0  0
 24 25  1  0     0  0
 24 26  1  0     0  0
 25 27  1  0     0  0
 26 28  1  0     0  0
 27 29  1  0     0  0
 28 29  1  0     0  0
M  END
> <Compound >
5

> <standard_type>
pIC50

> <# Confs.>
25

> <canonical_smiles>
NC1=C(/C(C)=N/O)C(OCC2CCCCC2)=NC(NC3=CC=C(S(=O)(N)=O)C=C3)=N1

> <standard_relation>
=

> <predicted_activity_value>
6.724919101543142

> <actual_activity_value>
6.931814138253839

> <Publication ID>
nan

> <standard_units>
nM

> hash
9398626533695141173

$$$$
5_
XXILIB    08252103513D 0   0.00000     0.00000

 30 32  0     1  0            999 V2000
   -0.9741   -0.0032    8.0625 S   0  0  1  0  0  6           0  0  0
   -2.1551   -0.2225    8.8744 O   0  0  0  0  0  2           0  0  0
   -0.1321    1.1588    8.2711 O   0  0  0  0  0  2           0  0  0
    1.0735    0.8743   -4.2700 O   0  0  0  0  0  2           0  0  0
    1.3870   -0.0000    0.0000 O   0  0  0  0  0  2           0  0  0
   -0.6530   -0.0000    1.1842 N   0  0  0  0  0  3           0  0  0
   -2.7112   -0.1212    0.0048 N   0  0  0  0  0  3           0  0  0
   -0.0097   -1.4092    8.0816 N   0  0  0  0  0  3           0  0  0
    0.3701    1.0611   -3.0778 N   0  0  0  0  0  3           0  0  0
   -2.7258   -0.0779    2.3596 N   0  0  0  0  0  3           0  0  0
   -2.8135   -0.1777   -2.3397 N   0  0  0  0  0  3           0  0  0
   -1.4850    0.0080    6.3738 C   0  0  0  0  0  4           0  0  0
    0.0000    0.0000    0.0000 C   0  0  0  0  0  4           0  0  0
   -2.0018   -0.0641    1.1555 C   0  0  0  0  0  4           0  0  0
   -2.0497   -0.1032   -1.1794 C   0  0  0  0  0  4           0  0  0
   -2.2903   -0.0349    3.6860 C   0  0  0  0  0  4           0  0  0
   -0.6576   -0.0563   -1.2222 C   0  0  0  0  0  4           0  0  0
   -2.6573   -0.6535    6.0173 C   0  0  0  0  0  4           0  0  0
   -0.7021    0.6383    5.4108 C   0  0  0  0  0  4           0  0  0
   -3.0557   -0.6682    4.6792 C   0  0  0  0  0  4           0  0  0
   -1.1079    0.6160    4.0730 C   0  0  0  0  0  4           0  0  0
    1.9722   -0.0000    1.3020 C   0  0  0  0  0  4           0  0  0
    0.0908   -0.0741   -2.5071 C   0  0  0  0  0  4           0  0  0
    3.4918    0.0000    1.1543 C   0  0  1  0  0  4           0  0  0
    3.9829    1.2386    0.3880 C   0  0  0  0  0  4           0  0  0
    4.1902   -0.0888    2.5208 C   0  0  0  0  0  4           0  0  0
    5.5028    1.2373    0.2366 C   0  0  0  0  0  4           0  0  0
    5.7106   -0.0926    2.3736 C   0  0  0  0  0  4           0  0  0
    6.2035    1.1178    1.5865 C   0  0  0  0  0  4           0  0  0
    0.5018   -1.4090   -3.1035 C   0  0  0  0  0  4           0  0  0
  1  2  2  0     0  0
  1  3  2  0     0  0
  1  8  1  0     0  0
  1 12  1  0     0  0
  4  9  1  0     0  0
  5 13  1  0     0  0
  5 22  1  0     0  0
  6 13  2  0     0  0
  6 14  1  0     0  0
  7 14  2  0     0  0
  7 15  1  0     0  0
  9 23  2  0     0  0
 10 14  1  0     0  0
 10 16  1  0     0  0
 11 15  1  0     0  0
 12 18  2  0     0  0
 12 19  1  0     0  0
 13 17  1  0     0  0
 15 17  2  0     0  0
 16 20  2  0     0  0
 16 21  1  0     0  0
 17 23  1  0     0  0
 18 20  1  0     0  0
 19 21  2  0     0  0
 22 24  1  0     0  0
 23 30  1  0     0  0
 24 25  1  0     0  0
 24 26  1  0     0  0
 25 27  1  0     0  0
 26 28  1  0     0  0
 27 29  1  0     0  0
 28 29  1  0     0  0
M  END
> <Compound >
5

> <standard_type>
pIC50

> <# Confs.>
25

> <canonical_smiles>
NC1=C(/C(C)=N/O)C(OCC2CCCCC2)=NC(NC3=CC=C(S(=O)(N)=O)C=C3)=N1

> <standard_relation>
=

> <predicted_activity_value>
6.724919101543142

> <actual_activity_value>
6.931814138253839

> <Publication ID>
nan

> <standard_units>
nM

> hash
9398626533695141173

$$$$
5_
XXILIB    08252103513D 0   0.00000     0.00000

 30 32  0     1  0            999 V2000
   -1.0106    0.1505    8.0696 S   0  0  1  0  0  6           0  0  0
   -0.0444   -0.9081    8.2879 O   0  0  0  0  0  2           0  0  0
   -2.2238    0.2263    8.8602 O   0  0  0  0  0  2           0  0  0
    1.0735    0.8743   -4.2700 O   0  0  0  0  0  2           0  0  0
    1.3870   -0.0000    0.0000 O   0  0  0  0  0  2           0  0  0
   -0.6530   -0.0000    1.1842 N   0  0  0  0  0  3           0  0  0
   -2.7112   -0.1212    0.0048 N   0  0  0  0  0  3           0  0  0
   -0.2135    1.6572    8.1138 N   0  0  0  0  0  3           0  0  0
    0.3701    1.0611   -3.0778 N   0  0  0  0  0  3           0  0  0
   -2.7258   -0.0779    2.3596 N   0  0  0  0  0  3           0  0  0
   -2.8135   -0.1777   -2.3397 N   0  0  0  0  0  3           0  0  0
   -1.4866    0.0932    6.3716 C   0  0  0  0  0  4           0  0  0
    0.0000    0.0000    0.0000 C   0  0  0  0  0  4           0  0  0
   -2.0018   -0.0641    1.1555 C   0  0  0  0  0  4           0  0  0
   -2.0497   -0.1032   -1.1794 C   0  0  0  0  0  4           0  0  0
   -2.2903   -0.0349    3.6860 C   0  0  0  0  0  4           0  0  0
   -0.6576   -0.0563   -1.2222 C   0  0  0  0  0  4           0  0  0
   -2.7203    0.6192    5.9968 C   0  0  0  0  0  4           0  0  0
   -0.6527   -0.5056    5.4317 C   0  0  0  0  0  4           0  0  0
   -3.1135    0.5567    4.6585 C   0  0  0  0  0  4           0  0  0
   -1.0562   -0.5657    4.0943 C   0  0  0  0  0  4           0  0  0
    1.9722   -0.0000    1.3020 C   0  0  0  0  0  4           0  0  0
    0.0908   -0.0741   -2.5071 C   0  0  0  0  0  4           0  0  0
    3.4918    0.0000    1.1543 C   0  0  1  0  0  4           0  0  0
    4.1905   -0.0000    2.5234 C   0  0  0  0  0  4           0  0  0
    3.9756   -1.1920    0.3127 C   0  0  0  0  0  4           0  0  0
    5.7108    0.0039    2.3762 C   0  0  0  0  0  4           0  0  0
    5.4956   -1.1906    0.1614 C   0  0  0  0  0  4           0  0  0
    6.1967   -1.1587    1.5161 C   0  0  0  0  0  4           0  0  0
    0.5018   -1.4090   -3.1035 C   0  0  0  0  0  4           0  0  0
  1  2  2  0     0  0
  1  3  2  0     0  0
  1  8  1  0     0  0
  1 12  1  0     0  0
  4  9  1  0     0  0
  5 13  1  0     0  0
  5 22  1  0     0  0
  6 13  2  0     0  0
  6 14  1  0     0  0
  7 14  2  0     0  0
  7 15  1  0     0  0
  9 23  2  0     0  0
 10 14  1  0     0  0
 10 16  1  0     0  0
 11 15  1  0     0  0
 12 18  2  0     0  0
 12 19  1  0     0  0
 13 17  1  0     0  0
 15 17  2  0     0  0
 16 20  2  0     0  0
 16 21  1  0     0  0
 17 23  1  0     0  0
 18 20  1  0     0  0
 19 21  2  0     0  0
 22 24  1  0     0  0
 23 30  1  0     0  0
 24 25  1  0     0  0
 24 26  1  0     0  0
 25 27  1  0     0  0
 26 28  1  0     0  0
 27 29  1  0     0  0
 28 29  1  0     0  0
M  END
> <Compound >
5

> <standard_type>
pIC50

> <# Confs.>
25

> <canonical_smiles>
NC1=C(/C(C)=N/O)C(OCC2CCCCC2)=NC(NC3=CC=C(S(=O)(N)=O)C=C3)=N1

> <standard_relation>
=

> <predicted_activity_value>
6.724919101543142

> <actual_activity_value>
6.931814138253839

> <Publication ID>
nan

> <standard_units>
nM

> hash
9398626533695141173

$$$$
5_
XXILIB    08252103513D 0   0.00000     0.00000

 30 32  0     1  0            999 V2000
   -1.0106    0.1505    8.0696 S   0  0  1  0  0  6           0  0  0
   -0.0444   -0.9081    8.2879 O   0  0  0  0  0  2           0  0  0
   -2.2238    0.2263    8.8602 O   0  0  0  0  0  2           0  0  0
    1.0735    0.8743   -4.2700 O   0  0  0  0  0  2           0  0  0
    1.3870   -0.0000    0.0000 O   0  0  0  0  0  2           0  0  0
   -0.6530   -0.0000    1.1842 N   0  0  0  0  0  3           0  0  0
   -2.7112   -0.1212    0.0048 N   0  0  0  0  0  3           0  0  0
   -0.2135    1.6572    8.1138 N   0  0  0  0  0  3           0  0  0
    0.3701    1.0611   -3.0778 N   0  0  0  0  0  3           0  0  0
   -2.7258   -0.0779    2.3596 N   0  0  0  0  0  3           0  0  0
   -2.8135   -0.1777   -2.3397 N   0  0  0  0  0  3           0  0  0
   -1.4866    0.0932    6.3716 C   0  0  0  0  0  4           0  0  0
    0.0000    0.0000    0.0000 C   0  0  0  0  0  4           0  0  0
   -2.0018   -0.0641    1.1555 C   0  0  0  0  0  4           0  0  0
   -2.0497   -0.1032   -1.1794 C   0  0  0  0  0  4           0  0  0
   -2.2903   -0.0349    3.6860 C   0  0  0  0  0  4           0  0  0
   -0.6576   -0.0563   -1.2222 C   0  0  0  0  0  4           0  0  0
   -2.7203    0.6192    5.9968 C   0  0  0  0  0  4           0  0  0
   -0.6527   -0.5056    5.4317 C   0  0  0  0  0  4           0  0  0
   -3.1135    0.5567    4.6585 C   0  0  0  0  0  4           0  0  0
   -1.0562   -0.5657    4.0943 C   0  0  0  0  0  4           0  0  0
    1.9722   -0.0000    1.3020 C   0  0  0  0  0  4           0  0  0
    0.0908   -0.0741   -2.5071 C   0  0  0  0  0  4           0  0  0
    3.4918    0.0000    1.1543 C   0  0  1  0  0  4           0  0  0
    3.9829   -1.2386    0.3880 C   0  0  0  0  0  4           0  0  0
    3.9905    1.2809    0.4659 C   0  0  0  0  0  4           0  0  0
    5.5035   -1.2411    0.2432 C   0  0  0  0  0  4           0  0  0
    5.5111    1.2832    0.3211 C   0  0  0  0  0  4           0  0  0
    6.0094    0.0408   -0.4110 C   0  0  0  0  0  4           0  0  0
    0.5018   -1.4090   -3.1035 C   0  0  0  0  0  4           0  0  0
  1  2  2  0     0  0
  1  3  2  0     0  0
  1  8  1  0     0  0
  1 12  1  0     0  0
  4  9  1  0     0  0
  5 13  1  0     0  0
  5 22  1  0     0  0
  6 13  2  0     0  0
  6 14  1  0     0  0
  7 14  2  0     0  0
  7 15  1  0     0  0
  9 23  2  0     0  0
 10 14  1  0     0  0
 10 16  1  0     0  0
 11 15  1  0     0  0
 12 18  2  0     0  0
 12 19  1  0     0  0
 13 17  1  0     0  0
 15 17  2  0     0  0
 16 20  2  0     0  0
 16 21  1  0     0  0
 17 23  1  0     0  0
 18 20  1  0     0  0
 19 21  2  0     0  0
 22 24  1  0     0  0
 23 30  1  0     0  0
 24 25  1  0     0  0
 24 26  1  0     0  0
 25 27  1  0     0  0
 26 28  1  0     0  0
 27 29  1  0     0  0
 28 29  1  0     0  0
M  END
> <Compound >
5

> <standard_type>
pIC50

> <# Confs.>
25

> <canonical_smiles>
NC1=C(/C(C)=N/O)C(OCC2CCCCC2)=NC(NC3=CC=C(S(=O)(N)=O)C=C3)=N1

> <standard_relation>
=

> <predicted_activity_value>
6.724919101543142

> <actual_activity_value>
6.931814138253839

> <Publication ID>
nan

> <standard_units>
nM

> hash
9398626533695141173

$$$$
5_
XXILIB    08252103513D 0   0.00000     0.00000

 30 32  0     1  0            999 V2000
   -0.9741   -0.0032    8.0625 S   0  0  1  0  0  6           0  0  0
   -2.1551   -0.2225    8.8744 O   0  0  0  0  0  2           0  0  0
   -0.1321    1.1588    8.2711 O   0  0  0  0  0  2           0  0  0
    1.0735    0.8743   -4.2700 O   0  0  0  0  0  2           0  0  0
    1.3870   -0.0000    0.0000 O   0  0  0  0  0  2           0  0  0
   -0.6530   -0.0000    1.1842 N   0  0  0  0  0  3           0  0  0
   -2.7112   -0.1212    0.0048 N   0  0  0  0  0  3           0  0  0
   -0.0097   -1.4092    8.0816 N   0  0  0  0  0  3           0  0  0
    0.3701    1.0611   -3.0778 N   0  0  0  0  0  3           0  0  0
   -2.7258   -0.0779    2.3596 N   0  0  0  0  0  3           0  0  0
   -2.8135   -0.1777   -2.3397 N   0  0  0  0  0  3           0  0  0
   -1.4850    0.0080    6.3738 C   0  0  0  0  0  4           0  0  0
    0.0000    0.0000    0.0000 C   0  0  0  0  0  4           0  0  0
   -2.0018   -0.0641    1.1555 C   0  0  0  0  0  4           0  0  0
   -2.0497   -0.1032   -1.1794 C   0  0  0  0  0  4           0  0  0
   -2.2903   -0.0349    3.6860 C   0  0  0  0  0  4           0  0  0
   -0.6576   -0.0563   -1.2222 C   0  0  0  0  0  4           0  0  0
   -2.6573   -0.6535    6.0173 C   0  0  0  0  0  4           0  0  0
   -0.7021    0.6383    5.4108 C   0  0  0  0  0  4           0  0  0
   -3.0557   -0.6682    4.6792 C   0  0  0  0  0  4           0  0  0
   -1.1079    0.6160    4.0730 C   0  0  0  0  0  4           0  0  0
    1.9722   -0.0000    1.3020 C   0  0  0  0  0  4           0  0  0
    0.0908   -0.0741   -2.5071 C   0  0  0  0  0  4           0  0  0
    3.4918    0.0000    1.1543 C   0  0  1  0  0  4           0  0  0
    3.9829   -1.2386    0.3880 C   0  0  0  0  0  4           0  0  0
    3.9905    1.2809    0.4659 C   0  0  0  0  0  4           0  0  0
    5.5035   -1.2411    0.2432 C   0  0  0  0  0  4           0  0  0
    5.5111    1.2832    0.3211 C   0  0  0  0  0  4           0  0  0
    6.0094    0.0408   -0.4110 C   0  0  0  0  0  4           0  0  0
    0.5018   -1.4090   -3.1035 C   0  0  0  0  0  4           0  0  0
  1  2  2  0     0  0
  1  3  2  0     0  0
  1  8  1  0     0  0
  1 12  1  0     0  0
  4  9  1  0     0  0
  5 13  1  0     0  0
  5 22  1  0     0  0
  6 13  2  0     0  0
  6 14  1  0     0  0
  7 14  2  0     0  0
  7 15  1  0     0  0
  9 23  2  0     0  0
 10 14  1  0     0  0
 10 16  1  0     0  0
 11 15  1  0     0  0
 12 18  2  0     0  0
 12 19  1  0     0  0
 13 17  1  0     0  0
 15 17  2  0     0  0
 16 20  2  0     0  0
 16 21  1  0     0  0
 17 23  1  0     0  0
 18 20  1  0     0  0
 19 21  2  0     0  0
 22 24  1  0     0  0
 23 30  1  0     0  0
 24 25  1  0     0  0
 24 26  1  0     0  0
 25 27  1  0     0  0
 26 28  1  0     0  0
 27 29  1  0     0  0
 28 29  1  0     0  0
M  END
> <Compound >
5

> <standard_type>
pIC50

> <# Confs.>
25

> <canonical_smiles>
NC1=C(/C(C)=N/O)C(OCC2CCCCC2)=NC(NC3=CC=C(S(=O)(N)=O)C=C3)=N1

> <standard_relation>
=

> <predicted_activity_value>
6.724919101543142

> <actual_activity_value>
6.931814138253839

> <Publication ID>
nan

> <standard_units>
nM

> hash
9398626533695141173

$$$$
5_
XXILIB    08252103513D 0   0.00000     0.00000

 30 32  0     1  0            999 V2000
   -0.9741   -0.0032    8.0625 S   0  0  1  0  0  6           0  0  0
   -2.1551   -0.2225    8.8744 O   0  0  0  0  0  2           0  0  0
   -0.1321    1.1588    8.2711 O   0  0  0  0  0  2           0  0  0
    1.0735    0.8743   -4.2700 O   0  0  0  0  0  2           0  0  0
    1.3870   -0.0000    0.0000 O   0  0  0  0  0  2           0  0  0
   -0.6530   -0.0000    1.1842 N   0  0  0  0  0  3           0  0  0
   -2.7112   -0.1212    0.0048 N   0  0  0  0  0  3           0  0  0
   -0.0097   -1.4092    8.0816 N   0  0  0  0  0  3           0  0  0
    0.3701    1.0611   -3.0778 N   0  0  0  0  0  3           0  0  0
   -2.7258   -0.0779    2.3596 N   0  0  0  0  0  3           0  0  0
   -2.8135   -0.1777   -2.3397 N   0  0  0  0  0  3           0  0  0
   -1.4850    0.0080    6.3738 C   0  0  0  0  0  4           0  0  0
    0.0000    0.0000    0.0000 C   0  0  0  0  0  4           0  0  0
   -2.0018   -0.0641    1.1555 C   0  0  0  0  0  4           0  0  0
   -2.0497   -0.1032   -1.1794 C   0  0  0  0  0  4           0  0  0
   -2.2903   -0.0349    3.6860 C   0  0  0  0  0  4           0  0  0
   -0.6576   -0.0563   -1.2222 C   0  0  0  0  0  4           0  0  0
   -2.6573   -0.6535    6.0173 C   0  0  0  0  0  4           0  0  0
   -0.7021    0.6383    5.4108 C   0  0  0  0  0  4           0  0  0
   -3.0557   -0.6682    4.6792 C   0  0  0  0  0  4           0  0  0
   -1.1079    0.6160    4.0730 C   0  0  0  0  0  4           0  0  0
    1.9722   -0.0000    1.3020 C   0  0  0  0  0  4           0  0  0
    0.0908   -0.0741   -2.5071 C   0  0  0  0  0  4           0  0  0
    3.4918    0.0000    1.1543 C   0  0  1  0  0  4           0  0  0
    4.1905   -0.0000    2.5234 C   0  0  0  0  0  4           0  0  0
    3.9756   -1.1920    0.3127 C   0  0  0  0  0  4           0  0  0
    5.7108    0.0039    2.3762 C   0  0  0  0  0  4           0  0  0
    5.4956   -1.1906    0.1614 C   0  0  0  0  0  4           0  0  0
    6.1967   -1.1587    1.5161 C   0  0  0  0  0  4           0  0  0
    0.5018   -1.4090   -3.1035 C   0  0  0  0  0  4           0  0  0
  1  2  2  0     0  0
  1  3  2  0     0  0
  1  8  1  0     0  0
  1 12  1  0     0  0
  4  9  1  0     0  0
  5 13  1  0     0  0
  5 22  1  0     0  0
  6 13  2  0     0  0
  6 14  1  0     0  0
  7 14  2  0     0  0
  7 15  1  0     0  0
  9 23  2  0     0  0
 10 14  1  0     0  0
 10 16  1  0     0  0
 11 15  1  0     0  0
 12 18  2  0     0  0
 12 19  1  0     0  0
 13 17  1  0     0  0
 15 17  2  0     0  0
 16 20  2  0     0  0
 16 21  1  0     0  0
 17 23  1  0     0  0
 18 20  1  0     0  0
 19 21  2  0     0  0
 22 24  1  0     0  0
 23 30  1  0     0  0
 24 25  1  0     0  0
 24 26  1  0     0  0
 25 27  1  0     0  0
 26 28  1  0     0  0
 27 29  1  0     0  0
 28 29  1  0     0  0
M  END
> <Compound >
5

> <standard_type>
pIC50

> <# Confs.>
25

> <canonical_smiles>
NC1=C(/C(C)=N/O)C(OCC2CCCCC2)=NC(NC3=CC=C(S(=O)(N)=O)C=C3)=N1

> <standard_relation>
=

> <predicted_activity_value>
6.724919101543142

> <actual_activity_value>
6.931814138253839

> <Publication ID>
nan

> <standard_units>
nM

> hash
9398626533695141173

$$$$
5_
XXILIB    08252103513D 0   0.00000     0.00000

 30 32  0     1  0            999 V2000
   -1.0106    0.1505    8.0696 S   0  0  1  0  0  6           0  0  0
   -1.7414    1.2374    8.6913 O   0  0  0  0  0  2           0  0  0
    0.4379    0.1030    8.1182 O   0  0  0  0  0  2           0  0  0
    1.0735    0.8743   -4.2700 O   0  0  0  0  0  2           0  0  0
    1.3870   -0.0000    0.0000 O   0  0  0  0  0  2           0  0  0
   -0.6530   -0.0000    1.1842 N   0  0  0  0  0  3           0  0  0
   -2.7112   -0.1212    0.0048 N   0  0  0  0  0  3           0  0  0
   -1.6423   -1.3363    8.6153 N   0  0  0  0  0  3           0  0  0
    0.3701    1.0611   -3.0778 N   0  0  0  0  0  3           0  0  0
   -2.7258   -0.0779    2.3596 N   0  0  0  0  0  3           0  0  0
   -2.8135   -0.1777   -2.3397 N   0  0  0  0  0  3           0  0  0
   -1.4866    0.0932    6.3716 C   0  0  0  0  0  4           0  0  0
    0.0000    0.0000    0.0000 C   0  0  0  0  0  4           0  0  0
   -2.0018   -0.0641    1.1555 C   0  0  0  0  0  4           0  0  0
   -2.0497   -0.1032   -1.1794 C   0  0  0  0  0  4           0  0  0
   -2.2903   -0.0349    3.6860 C   0  0  0  0  0  4           0  0  0
   -0.6576   -0.0563   -1.2222 C   0  0  0  0  0  4           0  0  0
   -2.7203    0.6192    5.9968 C   0  0  0  0  0  4           0  0  0
   -0.6527   -0.5056    5.4317 C   0  0  0  0  0  4           0  0  0
   -3.1135    0.5567    4.6585 C   0  0  0  0  0  4           0  0  0
   -1.0562   -0.5657    4.0943 C   0  0  0  0  0  4           0  0  0
    1.9722   -0.0000    1.3020 C   0  0  0  0  0  4           0  0  0
    0.0908   -0.0741   -2.5071 C   0  0  0  0  0  4           0  0  0
    3.4918    0.0000    1.1543 C   0  0  1  0  0  4           0  0  0
    3.9829    1.2386    0.3880 C   0  0  0  0  0  4           0  0  0
    4.1902   -0.0888    2.5208 C   0  0  0  0  0  4           0  0  0
    5.5028    1.2373    0.2366 C   0  0  0  0  0  4           0  0  0
    5.7106   -0.0926    2.3736 C   0  0  0  0  0  4           0  0  0
    6.2035    1.1178    1.5865 C   0  0  0  0  0  4           0  0  0
    0.5018   -1.4090   -3.1035 C   0  0  0  0  0  4           0  0  0
  1  2  2  0     0  0
  1  3  2  0     0  0
  1  8  1  0     0  0
  1 12  1  0     0  0
  4  9  1  0     0  0
  5 13  1  0     0  0
  5 22  1  0     0  0
  6 13  2  0     0  0
  6 14  1  0     0  0
  7 14  2  0     0  0
  7 15  1  0     0  0
  9 23  2  0     0  0
 10 14  1  0     0  0
 10 16  1  0     0  0
 11 15  1  0     0  0
 12 18  2  0     0  0
 12 19  1  0     0  0
 13 17  1  0     0  0
 15 17  2  0     0  0
 16 20  2  0     0  0
 16 21  1  0     0  0
 17 23  1  0     0  0
 18 20  1  0     0  0
 19 21  2  0     0  0
 22 24  1  0     0  0
 23 30  1  0     0  0
 24 25  1  0     0  0
 24 26  1  0     0  0
 25 27  1  0     0  0
 26 28  1  0     0  0
 27 29  1  0     0  0
 28 29  1  0     0  0
M  END
> <Compound >
5

> <standard_type>
pIC50

> <# Confs.>
25

> <canonical_smiles>
NC1=C(/C(C)=N/O)C(OCC2CCCCC2)=NC(NC3=CC=C(S(=O)(N)=O)C=C3)=N1

> <standard_relation>
=

> <predicted_activity_value>
6.724919101543142

> <actual_activity_value>
6.931814138253839

> <Publication ID>
nan

> <standard_units>
nM

> hash
9398626533695141173

$$$$
5_
XXILIB    08252103513D 0   0.00000     0.00000

 30 32  0     1  0            999 V2000
   -1.0106    0.1505    8.0696 S   0  0  1  0  0  6           0  0  0
   -1.7414    1.2374    8.6913 O   0  0  0  0  0  2           0  0  0
    0.4379    0.1030    8.1182 O   0  0  0  0  0  2           0  0  0
    1.0735    0.8743   -4.2700 O   0  0  0  0  0  2           0  0  0
    1.3870   -0.0000    0.0000 O   0  0  0  0  0  2           0  0  0
   -0.6530   -0.0000    1.1842 N   0  0  0  0  0  3           0  0  0
   -2.7112   -0.1212    0.0048 N   0  0  0  0  0  3           0  0  0
   -1.6423   -1.3363    8.6153 N   0  0  0  0  0  3           0  0  0
    0.3701    1.0611   -3.0778 N   0  0  0  0  0  3           0  0  0
   -2.7258   -0.0779    2.3596 N   0  0  0  0  0  3           0  0  0
   -2.8135   -0.1777   -2.3397 N   0  0  0  0  0  3           0  0  0
   -1.4866    0.0932    6.3716 C   0  0  0  0  0  4           0  0  0
    0.0000    0.0000    0.0000 C   0  0  0  0  0  4           0  0  0
   -2.0018   -0.0641    1.1555 C   0  0  0  0  0  4           0  0  0
   -2.0497   -0.1032   -1.1794 C   0  0  0  0  0  4           0  0  0
   -2.2903   -0.0349    3.6860 C   0  0  0  0  0  4           0  0  0
   -0.6576   -0.0563   -1.2222 C   0  0  0  0  0  4           0  0  0
   -2.7203    0.6192    5.9968 C   0  0  0  0  0  4           0  0  0
   -0.6527   -0.5056    5.4317 C   0  0  0  0  0  4           0  0  0
   -3.1135    0.5567    4.6585 C   0  0  0  0  0  4           0  0  0
   -1.0562   -0.5657    4.0943 C   0  0  0  0  0  4           0  0  0
    1.9722   -0.0000    1.3020 C   0  0  0  0  0  4           0  0  0
    0.0908   -0.0741   -2.5071 C   0  0  0  0  0  4           0  0  0
    3.4918    0.0000    1.1543 C   0  0  1  0  0  4           0  0  0
    4.1905   -0.0000    2.5234 C   0  0  0  0  0  4           0  0  0
    3.9756   -1.1920    0.3127 C   0  0  0  0  0  4           0  0  0
    5.7108    0.0039    2.3762 C   0  0  0  0  0  4           0  0  0
    5.4956   -1.1906    0.1614 C   0  0  0  0  0  4           0  0  0
    6.1967   -1.1587    1.5161 C   0  0  0  0  0  4           0  0  0
    0.5018   -1.4090   -3.1035 C   0  0  0  0  0  4           0  0  0
  1  2  2  0     0  0
  1  3  2  0     0  0
  1  8  1  0     0  0
  1 12  1  0     0  0
  4  9  1  0     0  0
  5 13  1  0     0  0
  5 22  1  0     0  0
  6 13  2  0     0  0
  6 14  1  0     0  0
  7 14  2  0     0  0
  7 15  1  0     0  0
  9 23  2  0     0  0
 10 14  1  0     0  0
 10 16  1  0     0  0
 11 15  1  0     0  0
 12 18  2  0     0  0
 12 19  1  0     0  0
 13 17  1  0     0  0
 15 17  2  0     0  0
 16 20  2  0     0  0
 16 21  1  0     0  0
 17 23  1  0     0  0
 18 20  1  0     0  0
 19 21  2  0     0  0
 22 24  1  0     0  0
 23 30  1  0     0  0
 24 25  1  0     0  0
 24 26  1  0     0  0
 25 27  1  0     0  0
 26 28  1  0     0  0
 27 29  1  0     0  0
 28 29  1  0     0  0
M  END
> <Compound >
5

> <standard_type>
pIC50

> <# Confs.>
25

> <canonical_smiles>
NC1=C(/C(C)=N/O)C(OCC2CCCCC2)=NC(NC3=CC=C(S(=O)(N)=O)C=C3)=N1

> <standard_relation>
=

> <predicted_activity_value>
6.724919101543142

> <actual_activity_value>
6.931814138253839

> <Publication ID>
nan

> <standard_units>
nM

> hash
9398626533695141173

$$$$
5_
XXILIB    08252103513D 0   0.00000     0.00000

 30 32  0     1  0            999 V2000
   -1.0106    0.1505    8.0696 S   0  0  1  0  0  6           0  0  0
   -1.7414    1.2374    8.6913 O   0  0  0  0  0  2           0  0  0
    0.4379    0.1030    8.1182 O   0  0  0  0  0  2           0  0  0
    1.0735    0.8743   -4.2700 O   0  0  0  0  0  2           0  0  0
    1.3870   -0.0000    0.0000 O   0  0  0  0  0  2           0  0  0
   -0.6530   -0.0000    1.1842 N   0  0  0  0  0  3           0  0  0
   -2.7112   -0.1212    0.0048 N   0  0  0  0  0  3           0  0  0
   -1.6423   -1.3363    8.6153 N   0  0  0  0  0  3           0  0  0
    0.3701    1.0611   -3.0778 N   0  0  0  0  0  3           0  0  0
   -2.7258   -0.0779    2.3596 N   0  0  0  0  0  3           0  0  0
   -2.8135   -0.1777   -2.3397 N   0  0  0  0  0  3           0  0  0
   -1.4866    0.0932    6.3716 C   0  0  0  0  0  4           0  0  0
    0.0000    0.0000    0.0000 C   0  0  0  0  0  4           0  0  0
   -2.0018   -0.0641    1.1555 C   0  0  0  0  0  4           0  0  0
   -2.0497   -0.1032   -1.1794 C   0  0  0  0  0  4           0  0  0
   -2.2903   -0.0349    3.6860 C   0  0  0  0  0  4           0  0  0
   -0.6576   -0.0563   -1.2222 C   0  0  0  0  0  4           0  0  0
   -2.7203    0.6192    5.9968 C   0  0  0  0  0  4           0  0  0
   -0.6527   -0.5056    5.4317 C   0  0  0  0  0  4           0  0  0
   -3.1135    0.5567    4.6585 C   0  0  0  0  0  4           0  0  0
   -1.0562   -0.5657    4.0943 C   0  0  0  0  0  4           0  0  0
    1.9722   -0.0000    1.3020 C   0  0  0  0  0  4           0  0  0
    0.0908   -0.0741   -2.5071 C   0  0  0  0  0  4           0  0  0
    3.4918    0.0000    1.1543 C   0  0  1  0  0  4           0  0  0
    3.9829   -1.2386    0.3880 C   0  0  0  0  0  4           0  0  0
    3.9905    1.2809    0.4659 C   0  0  0  0  0  4           0  0  0
    5.5035   -1.2411    0.2432 C   0  0  0  0  0  4           0  0  0
    5.5111    1.2832    0.3211 C   0  0  0  0  0  4           0  0  0
    6.0094    0.0408   -0.4110 C   0  0  0  0  0  4           0  0  0
    0.5018   -1.4090   -3.1035 C   0  0  0  0  0  4           0  0  0
  1  2  2  0     0  0
  1  3  2  0     0  0
  1  8  1  0     0  0
  1 12  1  0     0  0
  4  9  1  0     0  0
  5 13  1  0     0  0
  5 22  1  0     0  0
  6 13  2  0     0  0
  6 14  1  0     0  0
  7 14  2  0     0  0
  7 15  1  0     0  0
  9 23  2  0     0  0
 10 14  1  0     0  0
 10 16  1  0     0  0
 11 15  1  0     0  0
 12 18  2  0     0  0
 12 19  1  0     0  0
 13 17  1  0     0  0
 15 17  2  0     0  0
 16 20  2  0     0  0
 16 21  1  0     0  0
 17 23  1  0     0  0
 18 20  1  0     0  0
 19 21  2  0     0  0
 22 24  1  0     0  0
 23 30  1  0     0  0
 24 25  1  0     0  0
 24 26  1  0     0  0
 25 27  1  0     0  0
 26 28  1  0     0  0
 27 29  1  0     0  0
 28 29  1  0     0  0
M  END
> <Compound >
5

> <standard_type>
pIC50

> <# Confs.>
25

> <canonical_smiles>
NC1=C(/C(C)=N/O)C(OCC2CCCCC2)=NC(NC3=CC=C(S(=O)(N)=O)C=C3)=N1

> <standard_relation>
=

> <predicted_activity_value>
6.724919101543142

> <actual_activity_value>
6.931814138253839

> <Publication ID>
nan

> <standard_units>
nM

> hash
9398626533695141173

$$$$
5_
XXILIB    08252103513D 0   0.00000     0.00000

 30 32  0     1  0            999 V2000
   -1.0106    0.1505    8.0696 S   0  0  1  0  0  6           0  0  0
   -0.0444   -0.9081    8.2879 O   0  0  0  0  0  2           0  0  0
   -2.2238    0.2263    8.8602 O   0  0  0  0  0  2           0  0  0
    1.0735    0.8743   -4.2700 O   0  0  0  0  0  2           0  0  0
    1.3870   -0.0000    0.0000 O   0  0  0  0  0  2           0  0  0
   -0.6530   -0.0000    1.1842 N   0  0  0  0  0  3           0  0  0
   -2.7112   -0.1212    0.0048 N   0  0  0  0  0  3           0  0  0
   -0.2135    1.6572    8.1138 N   0  0  0  0  0  3           0  0  0
    0.3701    1.0611   -3.0778 N   0  0  0  0  0  3           0  0  0
   -2.7258   -0.0779    2.3596 N   0  0  0  0  0  3           0  0  0
   -2.8135   -0.1777   -2.3397 N   0  0  0  0  0  3           0  0  0
   -1.4866    0.0932    6.3716 C   0  0  0  0  0  4           0  0  0
    0.0000    0.0000    0.0000 C   0  0  0  0  0  4           0  0  0
   -2.0018   -0.0641    1.1555 C   0  0  0  0  0  4           0  0  0
   -2.0497   -0.1032   -1.1794 C   0  0  0  0  0  4           0  0  0
   -2.2903   -0.0349    3.6860 C   0  0  0  0  0  4           0  0  0
   -0.6576   -0.0563   -1.2222 C   0  0  0  0  0  4           0  0  0
   -2.7203    0.6192    5.9968 C   0  0  0  0  0  4           0  0  0
   -0.6527   -0.5056    5.4317 C   0  0  0  0  0  4           0  0  0
   -3.1135    0.5567    4.6585 C   0  0  0  0  0  4           0  0  0
   -1.0562   -0.5657    4.0943 C   0  0  0  0  0  4           0  0  0
    1.9722   -0.0000    1.3020 C   0  0  0  0  0  4           0  0  0
    0.0908   -0.0741   -2.5071 C   0  0  0  0  0  4           0  0  0
    3.4918    0.0000    1.1543 C   0  0  1  0  0  4           0  0  0
    4.0091   -1.2316    0.3896 C   0  0  0  0  0  4           0  0  0
    4.1865    0.1146    2.5195 C   0  0  0  0  0  4           0  0  0
    3.9276   -2.5192    1.2087 C   0  0  0  0  0  4           0  0  0
    4.1005   -1.1715    3.3398 C   0  0  0  0  0  4           0  0  0
    4.6250   -2.3715    2.5577 C   0  0  0  0  0  4           0  0  0
    0.5018   -1.4090   -3.1035 C   0  0  0  0  0  4           0  0  0
  1  2  2  0     0  0
  1  3  2  0     0  0
  1  8  1  0     0  0
  1 12  1  0     0  0
  4  9  1  0     0  0
  5 13  1  0     0  0
  5 22  1  0     0  0
  6 13  2  0     0  0
  6 14  1  0     0  0
  7 14  2  0     0  0
  7 15  1  0     0  0
  9 23  2  0     0  0
 10 14  1  0     0  0
 10 16  1  0     0  0
 11 15  1  0     0  0
 12 18  2  0     0  0
 12 19  1  0     0  0
 13 17  1  0     0  0
 15 17  2  0     0  0
 16 20  2  0     0  0
 16 21  1  0     0  0
 17 23  1  0     0  0
 18 20  1  0     0  0
 19 21  2  0     0  0
 22 24  1  0     0  0
 23 30  1  0     0  0
 24 25  1  0     0  0
 24 26  1  0     0  0
 25 27  1  0     0  0
 26 28  1  0     0  0
 27 29  1  0     0  0
 28 29  1  0     0  0
M  END
> <Compound >
5

> <standard_type>
pIC50

> <# Confs.>
25

> <canonical_smiles>
NC1=C(/C(C)=N/O)C(OCC2CCCCC2)=NC(NC3=CC=C(S(=O)(N)=O)C=C3)=N1

> <standard_relation>
=

> <predicted_activity_value>
6.724919101543142

> <actual_activity_value>
6.931814138253839

> <Publication ID>
nan

> <standard_units>
nM

> hash
9398626533695141173

$$$$
5_
XXILIB    08252103513D 0   0.00000     0.00000

 30 32  0     1  0            999 V2000
   -0.9741   -0.0032    8.0625 S   0  0  1  0  0  6           0  0  0
    0.4597    0.2105    8.0862 O   0  0  0  0  0  2           0  0  0
   -1.5635   -1.1708    8.6887 O   0  0  0  0  0  2           0  0  0
    1.0735    0.8743   -4.2700 O   0  0  0  0  0  2           0  0  0
    1.3870   -0.0000    0.0000 O   0  0  0  0  0  2           0  0  0
   -0.6530   -0.0000    1.1842 N   0  0  0  0  0  3           0  0  0
   -2.7112   -0.1212    0.0048 N   0  0  0  0  0  3           0  0  0
   -1.7609    1.3989    8.6302 N   0  0  0  0  0  3           0  0  0
    0.3701    1.0611   -3.0778 N   0  0  0  0  0  3           0  0  0
   -2.7258   -0.0779    2.3596 N   0  0  0  0  0  3           0  0  0
   -2.8135   -0.1777   -2.3397 N   0  0  0  0  0  3           0  0  0
   -1.4850    0.0080    6.3738 C   0  0  0  0  0  4           0  0  0
    0.0000    0.0000    0.0000 C   0  0  0  0  0  4           0  0  0
   -2.0018   -0.0641    1.1555 C   0  0  0  0  0  4           0  0  0
   -2.0497   -0.1032   -1.1794 C   0  0  0  0  0  4           0  0  0
   -2.2903   -0.0349    3.6860 C   0  0  0  0  0  4           0  0  0
   -0.6576   -0.0563   -1.2222 C   0  0  0  0  0  4           0  0  0
   -2.6573   -0.6535    6.0173 C   0  0  0  0  0  4           0  0  0
   -0.7021    0.6383    5.4108 C   0  0  0  0  0  4           0  0  0
   -3.0557   -0.6682    4.6792 C   0  0  0  0  0  4           0  0  0
   -1.1079    0.6160    4.0730 C   0  0  0  0  0  4           0  0  0
    1.9722   -0.0000    1.3020 C   0  0  0  0  0  4           0  0  0
    0.0908   -0.0741   -2.5071 C   0  0  0  0  0  4           0  0  0
    3.4918    0.0000    1.1543 C   0  0  1  0  0  4           0  0  0
    4.0091   -1.2316    0.3896 C   0  0  0  0  0  4           0  0  0
    4.1865    0.1146    2.5195 C   0  0  0  0  0  4           0  0  0
    3.9276   -2.5192    1.2087 C   0  0  0  0  0  4           0  0  0
    4.1005   -1.1715    3.3398 C   0  0  0  0  0  4           0  0  0
    4.6250   -2.3715    2.5577 C   0  0  0  0  0  4           0  0  0
    0.5018   -1.4090   -3.1035 C   0  0  0  0  0  4           0  0  0
  1  2  2  0     0  0
  1  3  2  0     0  0
  1  8  1  0     0  0
  1 12  1  0     0  0
  4  9  1  0     0  0
  5 13  1  0     0  0
  5 22  1  0     0  0
  6 13  2  0     0  0
  6 14  1  0     0  0
  7 14  2  0     0  0
  7 15  1  0     0  0
  9 23  2  0     0  0
 10 14  1  0     0  0
 10 16  1  0     0  0
 11 15  1  0     0  0
 12 18  2  0     0  0
 12 19  1  0     0  0
 13 17  1  0     0  0
 15 17  2  0     0  0
 16 20  2  0     0  0
 16 21  1  0     0  0
 17 23  1  0     0  0
 18 20  1  0     0  0
 19 21  2  0     0  0
 22 24  1  0     0  0
 23 30  1  0     0  0
 24 25  1  0     0  0
 24 26  1  0     0  0
 25 27  1  0     0  0
 26 28  1  0     0  0
 27 29  1  0     0  0
 28 29  1  0     0  0
M  END
> <Compound >
5

> <standard_type>
pIC50

> <# Confs.>
25

> <canonical_smiles>
NC1=C(/C(C)=N/O)C(OCC2CCCCC2)=NC(NC3=CC=C(S(=O)(N)=O)C=C3)=N1

> <standard_relation>
=

> <predicted_activity_value>
6.724919101543142

> <actual_activity_value>
6.931814138253839

> <Publication ID>
nan

> <standard_units>
nM

> hash
9398626533695141173

$$$$
5_
XXILIB    08252103513D 0   0.00000     0.00000

 30 32  0     1  0            999 V2000
   -0.9741   -0.0032    8.0625 S   0  0  1  0  0  6           0  0  0
   -2.1551   -0.2225    8.8744 O   0  0  0  0  0  2           0  0  0
   -0.1321    1.1588    8.2711 O   0  0  0  0  0  2           0  0  0
    1.0735    0.8743   -4.2700 O   0  0  0  0  0  2           0  0  0
    1.3870   -0.0000    0.0000 O   0  0  0  0  0  2           0  0  0
   -0.6530   -0.0000    1.1842 N   0  0  0  0  0  3           0  0  0
   -2.7112   -0.1212    0.0048 N   0  0  0  0  0  3           0  0  0
   -0.0097   -1.4092    8.0816 N   0  0  0  0  0  3           0  0  0
    0.3701    1.0611   -3.0778 N   0  0  0  0  0  3           0  0  0
   -2.7258   -0.0779    2.3596 N   0  0  0  0  0  3           0  0  0
   -2.8135   -0.1777   -2.3397 N   0  0  0  0  0  3           0  0  0
   -1.4850    0.0080    6.3738 C   0  0  0  0  0  4           0  0  0
    0.0000    0.0000    0.0000 C   0  0  0  0  0  4           0  0  0
   -2.0018   -0.0641    1.1555 C   0  0  0  0  0  4           0  0  0
   -2.0497   -0.1032   -1.1794 C   0  0  0  0  0  4           0  0  0
   -2.2903   -0.0349    3.6860 C   0  0  0  0  0  4           0  0  0
   -0.6576   -0.0563   -1.2222 C   0  0  0  0  0  4           0  0  0
   -2.6573   -0.6535    6.0173 C   0  0  0  0  0  4           0  0  0
   -0.7021    0.6383    5.4108 C   0  0  0  0  0  4           0  0  0
   -3.0557   -0.6682    4.6792 C   0  0  0  0  0  4           0  0  0
   -1.1079    0.6160    4.0730 C   0  0  0  0  0  4           0  0  0
    1.9722   -0.0000    1.3020 C   0  0  0  0  0  4           0  0  0
    0.0908   -0.0741   -2.5071 C   0  0  0  0  0  4           0  0  0
    3.4918    0.0000    1.1543 C   0  0  1  0  0  4           0  0  0
    4.0091   -1.2316    0.3896 C   0  0  0  0  0  4           0  0  0
    4.1865    0.1146    2.5195 C   0  0  0  0  0  4           0  0  0
    3.9276   -2.5192    1.2087 C   0  0  0  0  0  4           0  0  0
    4.1005   -1.1715    3.3398 C   0  0  0  0  0  4           0  0  0
    4.6250   -2.3715    2.5577 C   0  0  0  0  0  4           0  0  0
    0.5018   -1.4090   -3.1035 C   0  0  0  0  0  4           0  0  0
  1  2  2  0     0  0
  1  3  2  0     0  0
  1  8  1  0     0  0
  1 12  1  0     0  0
  4  9  1  0     0  0
  5 13  1  0     0  0
  5 22  1  0     0  0
  6 13  2  0     0  0
  6 14  1  0     0  0
  7 14  2  0     0  0
  7 15  1  0     0  0
  9 23  2  0     0  0
 10 14  1  0     0  0
 10 16  1  0     0  0
 11 15  1  0     0  0
 12 18  2  0     0  0
 12 19  1  0     0  0
 13 17  1  0     0  0
 15 17  2  0     0  0
 16 20  2  0     0  0
 16 21  1  0     0  0
 17 23  1  0     0  0
 18 20  1  0     0  0
 19 21  2  0     0  0
 22 24  1  0     0  0
 23 30  1  0     0  0
 24 25  1  0     0  0
 24 26  1  0     0  0
 25 27  1  0     0  0
 26 28  1  0     0  0
 27 29  1  0     0  0
 28 29  1  0     0  0
M  END
> <Compound >
5

> <standard_type>
pIC50

> <# Confs.>
25

> <canonical_smiles>
NC1=C(/C(C)=N/O)C(OCC2CCCCC2)=NC(NC3=CC=C(S(=O)(N)=O)C=C3)=N1

> <standard_relation>
=

> <predicted_activity_value>
6.724919101543142

> <actual_activity_value>
6.931814138253839

> <Publication ID>
nan

> <standard_units>
nM

> hash
9398626533695141173

$$$$
5_
XXILIB    08252103513D 0   0.00000     0.00000

 30 32  0     1  0            999 V2000
   -1.0106    0.1505    8.0696 S   0  0  1  0  0  6           0  0  0
   -1.7414    1.2374    8.6913 O   0  0  0  0  0  2           0  0  0
    0.4379    0.1030    8.1182 O   0  0  0  0  0  2           0  0  0
    1.0735    0.8743   -4.2700 O   0  0  0  0  0  2           0  0  0
    1.3870   -0.0000    0.0000 O   0  0  0  0  0  2           0  0  0
   -0.6530   -0.0000    1.1842 N   0  0  0  0  0  3           0  0  0
   -2.7112   -0.1212    0.0048 N   0  0  0  0  0  3           0  0  0
   -1.6423   -1.3363    8.6153 N   0  0  0  0  0  3           0  0  0
    0.3701    1.0611   -3.0778 N   0  0  0  0  0  3           0  0  0
   -2.7258   -0.0779    2.3596 N   0  0  0  0  0  3           0  0  0
   -2.8135   -0.1777   -2.3397 N   0  0  0  0  0  3           0  0  0
   -1.4866    0.0932    6.3716 C   0  0  0  0  0  4           0  0  0
    0.0000    0.0000    0.0000 C   0  0  0  0  0  4           0  0  0
   -2.0018   -0.0641    1.1555 C   0  0  0  0  0  4           0  0  0
   -2.0497   -0.1032   -1.1794 C   0  0  0  0  0  4           0  0  0
   -2.2903   -0.0349    3.6860 C   0  0  0  0  0  4           0  0  0
   -0.6576   -0.0563   -1.2222 C   0  0  0  0  0  4           0  0  0
   -2.7203    0.6192    5.9968 C   0  0  0  0  0  4           0  0  0
   -0.6527   -0.5056    5.4317 C   0  0  0  0  0  4           0  0  0
   -3.1135    0.5567    4.6585 C   0  0  0  0  0  4           0  0  0
   -1.0562   -0.5657    4.0943 C   0  0  0  0  0  4           0  0  0
    1.9722   -0.0000    1.3020 C   0  0  0  0  0  4           0  0  0
    0.0908   -0.0741   -2.5071 C   0  0  0  0  0  4           0  0  0
    3.4918    0.0000    1.1543 C   0  0  1  0  0  4           0  0  0
    4.0091   -1.2316    0.3896 C   0  0  0  0  0  4           0  0  0
    4.1865    0.1146    2.5195 C   0  0  0  0  0  4           0  0  0
    3.9276   -2.5192    1.2087 C   0  0  0  0  0  4           0  0  0
    4.1005   -1.1715    3.3398 C   0  0  0  0  0  4           0  0  0
    4.6250   -2.3715    2.5577 C   0  0  0  0  0  4           0  0  0
    0.5018   -1.4090   -3.1035 C   0  0  0  0  0  4           0  0  0
  1  2  2  0     0  0
  1  3  2  0     0  0
  1  8  1  0     0  0
  1 12  1  0     0  0
  4  9  1  0     0  0
  5 13  1  0     0  0
  5 22  1  0     0  0
  6 13  2  0     0  0
  6 14  1  0     0  0
  7 14  2  0     0  0
  7 15  1  0     0  0
  9 23  2  0     0  0
 10 14  1  0     0  0
 10 16  1  0     0  0
 11 15  1  0     0  0
 12 18  2  0     0  0
 12 19  1  0     0  0
 13 17  1  0     0  0
 15 17  2  0     0  0
 16 20  2  0     0  0
 16 21  1  0     0  0
 17 23  1  0     0  0
 18 20  1  0     0  0
 19 21  2  0     0  0
 22 24  1  0     0  0
 23 30  1  0     0  0
 24 25  1  0     0  0
 24 26  1  0     0  0
 25 27  1  0     0  0
 26 28  1  0     0  0
 27 29  1  0     0  0
 28 29  1  0     0  0
M  END
> <Compound >
5

> <standard_type>
pIC50

> <# Confs.>
25

> <canonical_smiles>
NC1=C(/C(C)=N/O)C(OCC2CCCCC2)=NC(NC3=CC=C(S(=O)(N)=O)C=C3)=N1

> <standard_relation>
=

> <predicted_activity_value>
6.724919101543142

> <actual_activity_value>
6.931814138253839

> <Publication ID>
nan

> <standard_units>
nM

> hash
9398626533695141173

$$$$
5_
XXILIB    08252103513D 0   0.00000     0.00000

 30 32  0     1  0            999 V2000
   -0.9741   -0.0032    8.0625 S   0  0  1  0  0  6           0  0  0
    0.4597    0.2105    8.0862 O   0  0  0  0  0  2           0  0  0
   -1.5635   -1.1708    8.6887 O   0  0  0  0  0  2           0  0  0
    1.0735    0.8743   -4.2700 O   0  0  0  0  0  2           0  0  0
    1.3870   -0.0000    0.0000 O   0  0  0  0  0  2           0  0  0
   -0.6530   -0.0000    1.1842 N   0  0  0  0  0  3           0  0  0
   -2.7112   -0.1212    0.0048 N   0  0  0  0  0  3           0  0  0
   -1.7609    1.3989    8.6302 N   0  0  0  0  0  3           0  0  0
    0.3701    1.0611   -3.0778 N   0  0  0  0  0  3           0  0  0
   -2.7258   -0.0779    2.3596 N   0  0  0  0  0  3           0  0  0
   -2.8135   -0.1777   -2.3397 N   0  0  0  0  0  3           0  0  0
   -1.4850    0.0080    6.3738 C   0  0  0  0  0  4           0  0  0
    0.0000    0.0000    0.0000 C   0  0  0  0  0  4           0  0  0
   -2.0018   -0.0641    1.1555 C   0  0  0  0  0  4           0  0  0
   -2.0497   -0.1032   -1.1794 C   0  0  0  0  0  4           0  0  0
   -2.2903   -0.0349    3.6860 C   0  0  0  0  0  4           0  0  0
   -0.6576   -0.0563   -1.2222 C   0  0  0  0  0  4           0  0  0
   -2.6573   -0.6535    6.0173 C   0  0  0  0  0  4           0  0  0
   -0.7021    0.6383    5.4108 C   0  0  0  0  0  4           0  0  0
   -3.0557   -0.6682    4.6792 C   0  0  0  0  0  4           0  0  0
   -1.1079    0.6160    4.0730 C   0  0  0  0  0  4           0  0  0
    1.9722   -0.0000    1.3020 C   0  0  0  0  0  4           0  0  0
    0.0908   -0.0741   -2.5071 C   0  0  0  0  0  4           0  0  0
    3.4918    0.0000    1.1543 C   0  0  1  0  0  4           0  0  0
    4.2155   -0.0000    2.5127 C   0  0  0  0  0  4           0  0  0
    3.9700    1.1777    0.2917 C   0  0  0  0  0  4           0  0  0
    4.1247    1.3430    3.2363 C   0  0  0  0  0  4           0  0  0
    3.8744    2.5206    1.0140 C   0  0  0  0  0  4           0  0  0
    4.6051    2.4904    2.3528 C   0  0  0  0  0  4           0  0  0
    0.5018   -1.4090   -3.1035 C   0  0  0  0  0  4           0  0  0
  1  2  2  0     0  0
  1  3  2  0     0  0
  1  8  1  0     0  0
  1 12  1  0     0  0
  4  9  1  0     0  0
  5 13  1  0     0  0
  5 22  1  0     0  0
  6 13  2  0     0  0
  6 14  1  0     0  0
  7 14  2  0     0  0
  7 15  1  0     0  0
  9 23  2  0     0  0
 10 14  1  0     0  0
 10 16  1  0     0  0
 11 15  1  0     0  0
 12 18  2  0     0  0
 12 19  1  0     0  0
 13 17  1  0     0  0
 15 17  2  0     0  0
 16 20  2  0     0  0
 16 21  1  0     0  0
 17 23  1  0     0  0
 18 20  1  0     0  0
 19 21  2  0     0  0
 22 24  1  0     0  0
 23 30  1  0     0  0
 24 25  1  0     0  0
 24 26  1  0     0  0
 25 27  1  0     0  0
 26 28  1  0     0  0
 27 29  1  0     0  0
 28 29  1  0     0  0
M  END
> <Compound >
5

> <standard_type>
pIC50

> <# Confs.>
25

> <canonical_smiles>
NC1=C(/C(C)=N/O)C(OCC2CCCCC2)=NC(NC3=CC=C(S(=O)(N)=O)C=C3)=N1

> <standard_relation>
=

> <predicted_activity_value>
6.724919101543142

> <actual_activity_value>
6.931814138253839

> <Publication ID>
nan

> <standard_units>
nM

> hash
9398626533695141173

$$$$
5_
XXILIB    08252103513D 0   0.00000     0.00000

 30 32  0     1  0            999 V2000
   -0.9741   -0.0032    8.0625 S   0  0  1  0  0  6           0  0  0
   -2.1551   -0.2225    8.8744 O   0  0  0  0  0  2           0  0  0
   -0.1321    1.1588    8.2711 O   0  0  0  0  0  2           0  0  0
    1.0735    0.8743   -4.2700 O   0  0  0  0  0  2           0  0  0
    1.3870   -0.0000    0.0000 O   0  0  0  0  0  2           0  0  0
   -0.6530   -0.0000    1.1842 N   0  0  0  0  0  3           0  0  0
   -2.7112   -0.1212    0.0048 N   0  0  0  0  0  3           0  0  0
   -0.0097   -1.4092    8.0816 N   0  0  0  0  0  3           0  0  0
    0.3701    1.0611   -3.0778 N   0  0  0  0  0  3           0  0  0
   -2.7258   -0.0779    2.3596 N   0  0  0  0  0  3           0  0  0
   -2.8135   -0.1777   -2.3397 N   0  0  0  0  0  3           0  0  0
   -1.4850    0.0080    6.3738 C   0  0  0  0  0  4           0  0  0
    0.0000    0.0000    0.0000 C   0  0  0  0  0  4           0  0  0
   -2.0018   -0.0641    1.1555 C   0  0  0  0  0  4           0  0  0
   -2.0497   -0.1032   -1.1794 C   0  0  0  0  0  4           0  0  0
   -2.2903   -0.0349    3.6860 C   0  0  0  0  0  4           0  0  0
   -0.6576   -0.0563   -1.2222 C   0  0  0  0  0  4           0  0  0
   -2.6573   -0.6535    6.0173 C   0  0  0  0  0  4           0  0  0
   -0.7021    0.6383    5.4108 C   0  0  0  0  0  4           0  0  0
   -3.0557   -0.6682    4.6792 C   0  0  0  0  0  4           0  0  0
   -1.1079    0.6160    4.0730 C   0  0  0  0  0  4           0  0  0
    1.9722   -0.0000    1.3020 C   0  0  0  0  0  4           0  0  0
    0.0908   -0.0741   -2.5071 C   0  0  0  0  0  4           0  0  0
    3.4918    0.0000    1.1543 C   0  0  1  0  0  4           0  0  0
    4.2155   -0.0000    2.5127 C   0  0  0  0  0  4           0  0  0
    3.9700    1.1777    0.2917 C   0  0  0  0  0  4           0  0  0
    4.1247    1.3430    3.2363 C   0  0  0  0  0  4           0  0  0
    3.8744    2.5206    1.0140 C   0  0  0  0  0  4           0  0  0
    4.6051    2.4904    2.3528 C   0  0  0  0  0  4           0  0  0
    0.5018   -1.4090   -3.1035 C   0  0  0  0  0  4           0  0  0
  1  2  2  0     0  0
  1  3  2  0     0  0
  1  8  1  0     0  0
  1 12  1  0     0  0
  4  9  1  0     0  0
  5 13  1  0     0  0
  5 22  1  0     0  0
  6 13  2  0     0  0
  6 14  1  0     0  0
  7 14  2  0     0  0
  7 15  1  0     0  0
  9 23  2  0     0  0
 10 14  1  0     0  0
 10 16  1  0     0  0
 11 15  1  0     0  0
 12 18  2  0     0  0
 12 19  1  0     0  0
 13 17  1  0     0  0
 15 17  2  0     0  0
 16 20  2  0     0  0
 16 21  1  0     0  0
 17 23  1  0     0  0
 18 20  1  0     0  0
 19 21  2  0     0  0
 22 24  1  0     0  0
 23 30  1  0     0  0
 24 25  1  0     0  0
 24 26  1  0     0  0
 25 27  1  0     0  0
 26 28  1  0     0  0
 27 29  1  0     0  0
 28 29  1  0     0  0
M  END
> <Compound >
5

> <standard_type>
pIC50

> <# Confs.>
25

> <canonical_smiles>
NC1=C(/C(C)=N/O)C(OCC2CCCCC2)=NC(NC3=CC=C(S(=O)(N)=O)C=C3)=N1

> <standard_relation>
=

> <predicted_activity_value>
6.724919101543142

> <actual_activity_value>
6.931814138253839

> <Publication ID>
nan

> <standard_units>
nM

> hash
9398626533695141173

$$$$
5_
XXILIB    08252103513D 0   0.00000     0.00000

 30 32  0     1  0            999 V2000
   -1.0106    0.1505    8.0696 S   0  0  1  0  0  6           0  0  0
   -0.0444   -0.9081    8.2879 O   0  0  0  0  0  2           0  0  0
   -2.2238    0.2263    8.8602 O   0  0  0  0  0  2           0  0  0
    1.0735    0.8743   -4.2700 O   0  0  0  0  0  2           0  0  0
    1.3870   -0.0000    0.0000 O   0  0  0  0  0  2           0  0  0
   -0.6530   -0.0000    1.1842 N   0  0  0  0  0  3           0  0  0
   -2.7112   -0.1212    0.0048 N   0  0  0  0  0  3           0  0  0
   -0.2135    1.6572    8.1138 N   0  0  0  0  0  3           0  0  0
    0.3701    1.0611   -3.0778 N   0  0  0  0  0  3           0  0  0
   -2.7258   -0.0779    2.3596 N   0  0  0  0  0  3           0  0  0
   -2.8135   -0.1777   -2.3397 N   0  0  0  0  0  3           0  0  0
   -1.4866    0.0932    6.3716 C   0  0  0  0  0  4           0  0  0
    0.0000    0.0000    0.0000 C   0  0  0  0  0  4           0  0  0
   -2.0018   -0.0641    1.1555 C   0  0  0  0  0  4           0  0  0
   -2.0497   -0.1032   -1.1794 C   0  0  0  0  0  4           0  0  0
   -2.2903   -0.0349    3.6860 C   0  0  0  0  0  4           0  0  0
   -0.6576   -0.0563   -1.2222 C   0  0  0  0  0  4           0  0  0
   -2.7203    0.6192    5.9968 C   0  0  0  0  0  4           0  0  0
   -0.6527   -0.5056    5.4317 C   0  0  0  0  0  4           0  0  0
   -3.1135    0.5567    4.6585 C   0  0  0  0  0  4           0  0  0
   -1.0562   -0.5657    4.0943 C   0  0  0  0  0  4           0  0  0
    1.9722   -0.0000    1.3020 C   0  0  0  0  0  4           0  0  0
    0.0908   -0.0741   -2.5071 C   0  0  0  0  0  4           0  0  0
    3.4918    0.0000    1.1543 C   0  0  1  0  0  4           0  0  0
    4.2155   -0.0000    2.5127 C   0  0  0  0  0  4           0  0  0
    3.9700    1.1777    0.2917 C   0  0  0  0  0  4           0  0  0
    4.1247    1.3430    3.2363 C   0  0  0  0  0  4           0  0  0
    3.8744    2.5206    1.0140 C   0  0  0  0  0  4           0  0  0
    4.6051    2.4904    2.3528 C   0  0  0  0  0  4           0  0  0
    0.5018   -1.4090   -3.1035 C   0  0  0  0  0  4           0  0  0
  1  2  2  0     0  0
  1  3  2  0     0  0
  1  8  1  0     0  0
  1 12  1  0     0  0
  4  9  1  0     0  0
  5 13  1  0     0  0
  5 22  1  0     0  0
  6 13  2  0     0  0
  6 14  1  0     0  0
  7 14  2  0     0  0
  7 15  1  0     0  0
  9 23  2  0     0  0
 10 14  1  0     0  0
 10 16  1  0     0  0
 11 15  1  0     0  0
 12 18  2  0     0  0
 12 19  1  0     0  0
 13 17  1  0     0  0
 15 17  2  0     0  0
 16 20  2  0     0  0
 16 21  1  0     0  0
 17 23  1  0     0  0
 18 20  1  0     0  0
 19 21  2  0     0  0
 22 24  1  0     0  0
 23 30  1  0     0  0
 24 25  1  0     0  0
 24 26  1  0     0  0
 25 27  1  0     0  0
 26 28  1  0     0  0
 27 29  1  0     0  0
 28 29  1  0     0  0
M  END
> <Compound >
5

> <standard_type>
pIC50

> <# Confs.>
25

> <canonical_smiles>
NC1=C(/C(C)=N/O)C(OCC2CCCCC2)=NC(NC3=CC=C(S(=O)(N)=O)C=C3)=N1

> <standard_relation>
=

> <predicted_activity_value>
6.724919101543142

> <actual_activity_value>
6.931814138253839

> <Publication ID>
nan

> <standard_units>
nM

> hash
9398626533695141173

$$$$
5_
XXILIB    08252103513D 0   0.00000     0.00000

 30 32  0     1  0            999 V2000
   -8.5707   -0.3849    3.5175 S   0  0  1  0  0  6           0  0  0
   -9.2274    0.6796    2.7843 O   0  0  0  0  0  2           0  0  0
   -8.6993   -0.4862    4.9583 O   0  0  0  0  0  2           0  0  0
    1.0735    0.8743   -4.2700 O   0  0  0  0  0  2           0  0  0
    1.3870   -0.0000    0.0000 O   0  0  0  0  0  2           0  0  0
   -0.6530   -0.0000    1.1842 N   0  0  0  0  0  3           0  0  0
   -2.7112   -0.1212    0.0048 N   0  0  0  0  0  3           0  0  0
   -8.9683   -1.8839    2.8089 N   0  0  0  0  0  3           0  0  0
    0.3701    1.0611   -3.0778 N   0  0  0  0  0  3           0  0  0
   -2.7258   -0.0779    2.3596 N   0  0  0  0  0  3           0  0  0
   -2.8135   -0.1777   -2.3397 N   0  0  0  0  0  3           0  0  0
   -6.8485   -0.3038    3.1429 C   0  0  0  0  0  4           0  0  0
    0.0000    0.0000    0.0000 C   0  0  0  0  0  4           0  0  0
   -2.0018   -0.0641    1.1555 C   0  0  0  0  0  4           0  0  0
   -2.0497   -0.1032   -1.1794 C   0  0  0  0  0  4           0  0  0
   -4.1010   -0.1387    2.5960 C   0  0  0  0  0  4           0  0  0
   -0.6576   -0.0563   -1.2222 C   0  0  0  0  0  4           0  0  0
   -5.9337   -0.8359    4.0479 C   0  0  0  0  0  4           0  0  0
   -6.4155    0.3190    1.9759 C   0  0  0  0  0  4           0  0  0
   -4.5680   -0.7549    3.7689 C   0  0  0  0  0  4           0  0  0
   -5.0458    0.3976    1.7064 C   0  0  0  0  0  4           0  0  0
    1.9722   -0.0000    1.3020 C   0  0  0  0  0  4           0  0  0
    0.0908   -0.0741   -2.5071 C   0  0  0  0  0  4           0  0  0
    3.4918    0.0000    1.1543 C   0  0  1  0  0  4           0  0  0
    3.9829   -1.2386    0.3880 C   0  0  0  0  0  4           0  0  0
    3.9905    1.2809    0.4659 C   0  0  0  0  0  4           0  0  0
    5.5035   -1.2411    0.2432 C   0  0  0  0  0  4           0  0  0
    5.5111    1.2832    0.3211 C   0  0  0  0  0  4           0  0  0
    6.0094    0.0408   -0.4110 C   0  0  0  0  0  4           0  0  0
    0.5018   -1.4090   -3.1035 C   0  0  0  0  0  4           0  0  0
  1  2  2  0     0  0
  1  3  2  0     0  0
  1  8  1  0     0  0
  1 12  1  0     0  0
  4  9  1  0     0  0
  5 13  1  0     0  0
  5 22  1  0     0  0
  6 13  2  0     0  0
  6 14  1  0     0  0
  7 14  2  0     0  0
  7 15  1  0     0  0
  9 23  2  0     0  0
 10 14  1  0     0  0
 10 16  1  0     0  0
 11 15  1  0     0  0
 12 18  2  0     0  0
 12 19  1  0     0  0
 13 17  1  0     0  0
 15 17  2  0     0  0
 16 20  2  0     0  0
 16 21  1  0     0  0
 17 23  1  0     0  0
 18 20  1  0     0  0
 19 21  2  0     0  0
 22 24  1  0     0  0
 23 30  1  0     0  0
 24 25  1  0     0  0
 24 26  1  0     0  0
 25 27  1  0     0  0
 26 28  1  0     0  0
 27 29  1  0     0  0
 28 29  1  0     0  0
M  END
> <Compound >
5

> <standard_type>
pIC50

> <# Confs.>
25

> <canonical_smiles>
NC1=C(/C(C)=N/O)C(OCC2CCCCC2)=NC(NC3=CC=C(S(=O)(N)=O)C=C3)=N1

> <standard_relation>
=

> <predicted_activity_value>
6.724919101543142

> <actual_activity_value>
6.931814138253839

> <Publication ID>
nan

> <standard_units>
nM

> hash
9398626533695141173

$$$$
5_
XXILIB    08252103513D 0   0.00000     0.00000

 30 32  0     1  0            999 V2000
   -8.5707   -0.3849    3.5175 S   0  0  1  0  0  6           0  0  0
   -9.2274    0.6796    2.7843 O   0  0  0  0  0  2           0  0  0
   -8.6993   -0.4862    4.9583 O   0  0  0  0  0  2           0  0  0
    1.0735    0.8743   -4.2700 O   0  0  0  0  0  2           0  0  0
    1.3870   -0.0000    0.0000 O   0  0  0  0  0  2           0  0  0
   -0.6530   -0.0000    1.1842 N   0  0  0  0  0  3           0  0  0
   -2.7112   -0.1212    0.0048 N   0  0  0  0  0  3           0  0  0
   -8.9683   -1.8839    2.8089 N   0  0  0  0  0  3           0  0  0
    0.3701    1.0611   -3.0778 N   0  0  0  0  0  3           0  0  0
   -2.7258   -0.0779    2.3596 N   0  0  0  0  0  3           0  0  0
   -2.8135   -0.1777   -2.3397 N   0  0  0  0  0  3           0  0  0
   -6.8485   -0.3038    3.1429 C   0  0  0  0  0  4           0  0  0
    0.0000    0.0000    0.0000 C   0  0  0  0  0  4           0  0  0
   -2.0018   -0.0641    1.1555 C   0  0  0  0  0  4           0  0  0
   -2.0497   -0.1032   -1.1794 C   0  0  0  0  0  4           0  0  0
   -4.1010   -0.1387    2.5960 C   0  0  0  0  0  4           0  0  0
   -0.6576   -0.0563   -1.2222 C   0  0  0  0  0  4           0  0  0
   -5.9337   -0.8359    4.0479 C   0  0  0  0  0  4           0  0  0
   -6.4155    0.3190    1.9759 C   0  0  0  0  0  4           0  0  0
   -4.5680   -0.7549    3.7689 C   0  0  0  0  0  4           0  0  0
   -5.0458    0.3976    1.7064 C   0  0  0  0  0  4           0  0  0
    1.9722   -0.0000    1.3020 C   0  0  0  0  0  4           0  0  0
    0.0908   -0.0741   -2.5071 C   0  0  0  0  0  4           0  0  0
    3.4918    0.0000    1.1543 C   0  0  1  0  0  4           0  0  0
    3.9829    1.2386    0.3880 C   0  0  0  0  0  4           0  0  0
    4.1902   -0.0888    2.5208 C   0  0  0  0  0  4           0  0  0
    5.5028    1.2373    0.2366 C   0  0  0  0  0  4           0  0  0
    5.7106   -0.0926    2.3736 C   0  0  0  0  0  4           0  0  0
    6.2035    1.1178    1.5865 C   0  0  0  0  0  4           0  0  0
    0.5018   -1.4090   -3.1035 C   0  0  0  0  0  4           0  0  0
  1  2  2  0     0  0
  1  3  2  0     0  0
  1  8  1  0     0  0
  1 12  1  0     0  0
  4  9  1  0     0  0
  5 13  1  0     0  0
  5 22  1  0     0  0
  6 13  2  0     0  0
  6 14  1  0     0  0
  7 14  2  0     0  0
  7 15  1  0     0  0
  9 23  2  0     0  0
 10 14  1  0     0  0
 10 16  1  0     0  0
 11 15  1  0     0  0
 12 18  2  0     0  0
 12 19  1  0     0  0
 13 17  1  0     0  0
 15 17  2  0     0  0
 16 20  2  0     0  0
 16 21  1  0     0  0
 17 23  1  0     0  0
 18 20  1  0     0  0
 19 21  2  0     0  0
 22 24  1  0     0  0
 23 30  1  0     0  0
 24 25  1  0     0  0
 24 26  1  0     0  0
 25 27  1  0     0  0
 26 28  1  0     0  0
 27 29  1  0     0  0
 28 29  1  0     0  0
M  END
> <Compound >
5

> <standard_type>
pIC50

> <# Confs.>
25

> <canonical_smiles>
NC1=C(/C(C)=N/O)C(OCC2CCCCC2)=NC(NC3=CC=C(S(=O)(N)=O)C=C3)=N1

> <standard_relation>
=

> <predicted_activity_value>
6.724919101543142

> <actual_activity_value>
6.931814138253839

> <Publication ID>
nan

> <standard_units>
nM

> hash
9398626533695141173

$$$$
5_
XXILIB    08252103513D 0   0.00000     0.00000

 30 32  0     1  0            999 V2000
   -8.5832   -0.2307    3.4845 S   0  0  1  0  0  6           0  0  0
   -8.7486   -0.0370    4.9117 O   0  0  0  0  0  2           0  0  0
   -9.1505   -1.3875    2.8191 O   0  0  0  0  0  2           0  0  0
    1.0735    0.8743   -4.2700 O   0  0  0  0  0  2           0  0  0
    1.3870   -0.0000    0.0000 O   0  0  0  0  0  2           0  0  0
   -0.6530   -0.0000    1.1842 N   0  0  0  0  0  3           0  0  0
   -2.7112   -0.1212    0.0048 N   0  0  0  0  0  3           0  0  0
   -9.0666    1.1845    2.6653 N   0  0  0  0  0  3           0  0  0
    0.3701    1.0611   -3.0778 N   0  0  0  0  0  3           0  0  0
   -2.7258   -0.0779    2.3596 N   0  0  0  0  0  3           0  0  0
   -2.8135   -0.1777   -2.3397 N   0  0  0  0  0  3           0  0  0
   -6.8521   -0.2187    3.1439 C   0  0  0  0  0  4           0  0  0
    0.0000    0.0000    0.0000 C   0  0  0  0  0  4           0  0  0
   -2.0018   -0.0641    1.1555 C   0  0  0  0  0  4           0  0  0
   -2.0497   -0.1032   -1.1794 C   0  0  0  0  0  4           0  0  0
   -4.1010   -0.1387    2.5960 C   0  0  0  0  0  4           0  0  0
   -0.6576   -0.0563   -1.2222 C   0  0  0  0  0  4           0  0  0
   -5.9942    0.4368    4.0233 C   0  0  0  0  0  4           0  0  0
   -6.3624   -0.8248    1.9905 C   0  0  0  0  0  4           0  0  0
   -4.6257    0.4700    3.7482 C   0  0  0  0  0  4           0  0  0
   -4.9908   -0.7841    1.7222 C   0  0  0  0  0  4           0  0  0
    1.9722   -0.0000    1.3020 C   0  0  0  0  0  4           0  0  0
    0.0908   -0.0741   -2.5071 C   0  0  0  0  0  4           0  0  0
    3.4918    0.0000    1.1543 C   0  0  1  0  0  4           0  0  0
    3.9829   -1.2386    0.3880 C   0  0  0  0  0  4           0  0  0
    3.9905    1.2809    0.4659 C   0  0  0  0  0  4           0  0  0
    5.5035   -1.2411    0.2432 C   0  0  0  0  0  4           0  0  0
    5.5111    1.2832    0.3211 C   0  0  0  0  0  4           0  0  0
    6.0094    0.0408   -0.4110 C   0  0  0  0  0  4           0  0  0
    0.5018   -1.4090   -3.1035 C   0  0  0  0  0  4           0  0  0
  1  2  2  0     0  0
  1  3  2  0     0  0
  1  8  1  0     0  0
  1 12  1  0     0  0
  4  9  1  0     0  0
  5 13  1  0     0  0
  5 22  1  0     0  0
  6 13  2  0     0  0
  6 14  1  0     0  0
  7 14  2  0     0  0
  7 15  1  0     0  0
  9 23  2  0     0  0
 10 14  1  0     0  0
 10 16  1  0     0  0
 11 15  1  0     0  0
 12 18  2  0     0  0
 12 19  1  0     0  0
 13 17  1  0     0  0
 15 17  2  0     0  0
 16 20  2  0     0  0
 16 21  1  0     0  0
 17 23  1  0     0  0
 18 20  1  0     0  0
 19 21  2  0     0  0
 22 24  1  0     0  0
 23 30  1  0     0  0
 24 25  1  0     0  0
 24 26  1  0     0  0
 25 27  1  0     0  0
 26 28  1  0     0  0
 27 29  1  0     0  0
 28 29  1  0     0  0
M  END
> <Compound >
5

> <standard_type>
pIC50

> <# Confs.>
25

> <canonical_smiles>
NC1=C(/C(C)=N/O)C(OCC2CCCCC2)=NC(NC3=CC=C(S(=O)(N)=O)C=C3)=N1

> <standard_relation>
=

> <predicted_activity_value>
6.724919101543142

> <actual_activity_value>
6.931814138253839

> <Publication ID>
nan

> <standard_units>
nM

> hash
9398626533695141173

$$$$
5_
XXILIB    08252103513D 0   0.00000     0.00000

 30 32  0     1  0            999 V2000
   -8.5707   -0.3849    3.5175 S   0  0  1  0  0  6           0  0  0
   -9.2274    0.6796    2.7843 O   0  0  0  0  0  2           0  0  0
   -8.6993   -0.4862    4.9583 O   0  0  0  0  0  2           0  0  0
    1.0735    0.8743   -4.2700 O   0  0  0  0  0  2           0  0  0
    1.3870   -0.0000    0.0000 O   0  0  0  0  0  2           0  0  0
   -0.6530   -0.0000    1.1842 N   0  0  0  0  0  3           0  0  0
   -2.7112   -0.1212    0.0048 N   0  0  0  0  0  3           0  0  0
   -8.9683   -1.8839    2.8089 N   0  0  0  0  0  3           0  0  0
    0.3701    1.0611   -3.0778 N   0  0  0  0  0  3           0  0  0
   -2.7258   -0.0779    2.3596 N   0  0  0  0  0  3           0  0  0
   -2.8135   -0.1777   -2.3397 N   0  0  0  0  0  3           0  0  0
   -6.8485   -0.3038    3.1429 C   0  0  0  0  0  4           0  0  0
    0.0000    0.0000    0.0000 C   0  0  0  0  0  4           0  0  0
   -2.0018   -0.0641    1.1555 C   0  0  0  0  0  4           0  0  0
   -2.0497   -0.1032   -1.1794 C   0  0  0  0  0  4           0  0  0
   -4.1010   -0.1387    2.5960 C   0  0  0  0  0  4           0  0  0
   -0.6576   -0.0563   -1.2222 C   0  0  0  0  0  4           0  0  0
   -5.9337   -0.8359    4.0479 C   0  0  0  0  0  4           0  0  0
   -6.4155    0.3190    1.9759 C   0  0  0  0  0  4           0  0  0
   -4.5680   -0.7549    3.7689 C   0  0  0  0  0  4           0  0  0
   -5.0458    0.3976    1.7064 C   0  0  0  0  0  4           0  0  0
    1.9722   -0.0000    1.3020 C   0  0  0  0  0  4           0  0  0
    0.0908   -0.0741   -2.5071 C   0  0  0  0  0  4           0  0  0
    3.4918    0.0000    1.1543 C   0  0  1  0  0  4           0  0  0
    4.1905   -0.0000    2.5234 C   0  0  0  0  0  4           0  0  0
    3.9756   -1.1920    0.3127 C   0  0  0  0  0  4           0  0  0
    5.7108    0.0039    2.3762 C   0  0  0  0  0  4           0  0  0
    5.4956   -1.1906    0.1614 C   0  0  0  0  0  4           0  0  0
    6.1967   -1.1587    1.5161 C   0  0  0  0  0  4           0  0  0
    0.5018   -1.4090   -3.1035 C   0  0  0  0  0  4           0  0  0
  1  2  2  0     0  0
  1  3  2  0     0  0
  1  8  1  0     0  0
  1 12  1  0     0  0
  4  9  1  0     0  0
  5 13  1  0     0  0
  5 22  1  0     0  0
  6 13  2  0     0  0
  6 14  1  0     0  0
  7 14  2  0     0  0
  7 15  1  0     0  0
  9 23  2  0     0  0
 10 14  1  0     0  0
 10 16  1  0     0  0
 11 15  1  0     0  0
 12 18  2  0     0  0
 12 19  1  0     0  0
 13 17  1  0     0  0
 15 17  2  0     0  0
 16 20  2  0     0  0
 16 21  1  0     0  0
 17 23  1  0     0  0
 18 20  1  0     0  0
 19 21  2  0     0  0
 22 24  1  0     0  0
 23 30  1  0     0  0
 24 25  1  0     0  0
 24 26  1  0     0  0
 25 27  1  0     0  0
 26 28  1  0     0  0
 27 29  1  0     0  0
 28 29  1  0     0  0
M  END
> <Compound >
5

> <standard_type>
pIC50

> <# Confs.>
25

> <canonical_smiles>
NC1=C(/C(C)=N/O)C(OCC2CCCCC2)=NC(NC3=CC=C(S(=O)(N)=O)C=C3)=N1

> <standard_relation>
=

> <predicted_activity_value>
6.724919101543142

> <actual_activity_value>
6.931814138253839

> <Publication ID>
nan

> <standard_units>
nM

> hash
9398626533695141173

$$$$
5_
XXILIB    08252103513D 0   0.00000     0.00000

 30 32  0     1  0            999 V2000
   -8.5832   -0.2307    3.4845 S   0  0  1  0  0  6           0  0  0
   -8.7486   -0.0370    4.9117 O   0  0  0  0  0  2           0  0  0
   -9.1505   -1.3875    2.8191 O   0  0  0  0  0  2           0  0  0
    1.0735    0.8743   -4.2700 O   0  0  0  0  0  2           0  0  0
    1.3870   -0.0000    0.0000 O   0  0  0  0  0  2           0  0  0
   -0.6530   -0.0000    1.1842 N   0  0  0  0  0  3           0  0  0
   -2.7112   -0.1212    0.0048 N   0  0  0  0  0  3           0  0  0
   -9.0666    1.1845    2.6653 N   0  0  0  0  0  3           0  0  0
    0.3701    1.0611   -3.0778 N   0  0  0  0  0  3           0  0  0
   -2.7258   -0.0779    2.3596 N   0  0  0  0  0  3           0  0  0
   -2.8135   -0.1777   -2.3397 N   0  0  0  0  0  3           0  0  0
   -6.8521   -0.2187    3.1439 C   0  0  0  0  0  4           0  0  0
    0.0000    0.0000    0.0000 C   0  0  0  0  0  4           0  0  0
   -2.0018   -0.0641    1.1555 C   0  0  0  0  0  4           0  0  0
   -2.0497   -0.1032   -1.1794 C   0  0  0  0  0  4           0  0  0
   -4.1010   -0.1387    2.5960 C   0  0  0  0  0  4           0  0  0
   -0.6576   -0.0563   -1.2222 C   0  0  0  0  0  4           0  0  0
   -5.9942    0.4368    4.0233 C   0  0  0  0  0  4           0  0  0
   -6.3624   -0.8248    1.9905 C   0  0  0  0  0  4           0  0  0
   -4.6257    0.4700    3.7482 C   0  0  0  0  0  4           0  0  0
   -4.9908   -0.7841    1.7222 C   0  0  0  0  0  4           0  0  0
    1.9722   -0.0000    1.3020 C   0  0  0  0  0  4           0  0  0
    0.0908   -0.0741   -2.5071 C   0  0  0  0  0  4           0  0  0
    3.4918    0.0000    1.1543 C   0  0  1  0  0  4           0  0  0
    3.9829    1.2386    0.3880 C   0  0  0  0  0  4           0  0  0
    4.1902   -0.0888    2.5208 C   0  0  0  0  0  4           0  0  0
    5.5028    1.2373    0.2366 C   0  0  0  0  0  4           0  0  0
    5.7106   -0.0926    2.3736 C   0  0  0  0  0  4           0  0  0
    6.2035    1.1178    1.5865 C   0  0  0  0  0  4           0  0  0
    0.5018   -1.4090   -3.1035 C   0  0  0  0  0  4           0  0  0
  1  2  2  0     0  0
  1  3  2  0     0  0
  1  8  1  0     0  0
  1 12  1  0     0  0
  4  9  1  0     0  0
  5 13  1  0     0  0
  5 22  1  0     0  0
  6 13  2  0     0  0
  6 14  1  0     0  0
  7 14  2  0     0  0
  7 15  1  0     0  0
  9 23  2  0     0  0
 10 14  1  0     0  0
 10 16  1  0     0  0
 11 15  1  0     0  0
 12 18  2  0     0  0
 12 19  1  0     0  0
 13 17  1  0     0  0
 15 17  2  0     0  0
 16 20  2  0     0  0
 16 21  1  0     0  0
 17 23  1  0     0  0
 18 20  1  0     0  0
 19 21  2  0     0  0
 22 24  1  0     0  0
 23 30  1  0     0  0
 24 25  1  0     0  0
 24 26  1  0     0  0
 25 27  1  0     0  0
 26 28  1  0     0  0
 27 29  1  0     0  0
 28 29  1  0     0  0
M  END
> <Compound >
5

> <standard_type>
pIC50

> <# Confs.>
25

> <canonical_smiles>
NC1=C(/C(C)=N/O)C(OCC2CCCCC2)=NC(NC3=CC=C(S(=O)(N)=O)C=C3)=N1

> <standard_relation>
=

> <predicted_activity_value>
6.724919101543142

> <actual_activity_value>
6.931814138253839

> <Publication ID>
nan

> <standard_units>
nM

> hash
9398626533695141173

$$$$
5_
XXILIB    08252103513D 0   0.00000     0.00000

 30 32  0     1  0            999 V2000
   -1.0106    0.1505    8.0696 S   0  0  1  0  0  6           0  0  0
   -1.7414    1.2374    8.6913 O   0  0  0  0  0  2           0  0  0
    0.4379    0.1030    8.1182 O   0  0  0  0  0  2           0  0  0
    1.0735    0.8743   -4.2700 O   0  0  0  0  0  2           0  0  0
    1.3870   -0.0000    0.0000 O   0  0  0  0  0  2           0  0  0
   -0.6530   -0.0000    1.1842 N   0  0  0  0  0  3           0  0  0
   -2.7112   -0.1212    0.0048 N   0  0  0  0  0  3           0  0  0
   -1.6423   -1.3363    8.6153 N   0  0  0  0  0  3           0  0  0
    0.3701    1.0611   -3.0778 N   0  0  0  0  0  3           0  0  0
   -2.7258   -0.0779    2.3596 N   0  0  0  0  0  3           0  0  0
   -2.8135   -0.1777   -2.3397 N   0  0  0  0  0  3           0  0  0
   -1.4866    0.0932    6.3716 C   0  0  0  0  0  4           0  0  0
    0.0000    0.0000    0.0000 C   0  0  0  0  0  4           0  0  0
   -2.0018   -0.0641    1.1555 C   0  0  0  0  0  4           0  0  0
   -2.0497   -0.1032   -1.1794 C   0  0  0  0  0  4           0  0  0
   -2.2903   -0.0349    3.6860 C   0  0  0  0  0  4           0  0  0
   -0.6576   -0.0563   -1.2222 C   0  0  0  0  0  4           0  0  0
   -2.7203    0.6192    5.9968 C   0  0  0  0  0  4           0  0  0
   -0.6527   -0.5056    5.4317 C   0  0  0  0  0  4           0  0  0
   -3.1135    0.5567    4.6585 C   0  0  0  0  0  4           0  0  0
   -1.0562   -0.5657    4.0943 C   0  0  0  0  0  4           0  0  0
    1.9722   -0.0000    1.3020 C   0  0  0  0  0  4           0  0  0
    0.0908   -0.0741   -2.5071 C   0  0  0  0  0  4           0  0  0
    3.4918    0.0000    1.1543 C   0  0  1  0  0  4           0  0  0
    4.2155   -0.0000    2.5127 C   0  0  0  0  0  4           0  0  0
    3.9700    1.1777    0.2917 C   0  0  0  0  0  4           0  0  0
    4.1247    1.3430    3.2363 C   0  0  0  0  0  4           0  0  0
    3.8744    2.5206    1.0140 C   0  0  0  0  0  4           0  0  0
    4.6051    2.4904    2.3528 C   0  0  0  0  0  4           0  0  0
    0.5018   -1.4090   -3.1035 C   0  0  0  0  0  4           0  0  0
  1  2  2  0     0  0
  1  3  2  0     0  0
  1  8  1  0     0  0
  1 12  1  0     0  0
  4  9  1  0     0  0
  5 13  1  0     0  0
  5 22  1  0     0  0
  6 13  2  0     0  0
  6 14  1  0     0  0
  7 14  2  0     0  0
  7 15  1  0     0  0
  9 23  2  0     0  0
 10 14  1  0     0  0
 10 16  1  0     0  0
 11 15  1  0     0  0
 12 18  2  0     0  0
 12 19  1  0     0  0
 13 17  1  0     0  0
 15 17  2  0     0  0
 16 20  2  0     0  0
 16 21  1  0     0  0
 17 23  1  0     0  0
 18 20  1  0     0  0
 19 21  2  0     0  0
 22 24  1  0     0  0
 23 30  1  0     0  0
 24 25  1  0     0  0
 24 26  1  0     0  0
 25 27  1  0     0  0
 26 28  1  0     0  0
 27 29  1  0     0  0
 28 29  1  0     0  0
M  END
> <Compound >
5

> <standard_type>
pIC50

> <# Confs.>
25

> <canonical_smiles>
NC1=C(/C(C)=N/O)C(OCC2CCCCC2)=NC(NC3=CC=C(S(=O)(N)=O)C=C3)=N1

> <standard_relation>
=

> <predicted_activity_value>
6.724919101543142

> <actual_activity_value>
6.931814138253839

> <Publication ID>
nan

> <standard_units>
nM

> hash
9398626533695141173

$$$$
3_
XXILIB    08252103513D 0   0.00000     0.00000

 28 30  0     1  0            999 V2000
   -8.4555    0.1621    3.8139 S   0  0  2  0  0  6           0  0  0
   -9.0944   -0.9371    3.1169 O   0  0  0  0  0  2           0  0  0
   -8.5315    0.2733    5.2573 O   0  0  0  0  0  2           0  0  0
    1.3875    0.0000    0.0000 O   0  0  0  0  0  2           0  0  0
   -0.4388   -0.4655   -3.4907 O   0  0  0  0  0  2           0  0  0
   -0.6488   -0.0000    1.1871 N   0  0  0  0  0  3           0  0  0
   -2.7121    0.0362    0.0156 N   0  0  0  0  0  3           0  0  0
   -8.9453    1.6350    3.1092 N   0  0  0  0  0  3           0  0  0
   -2.6608    0.0361    2.3983 N   0  0  0  0  0  3           0  0  0
   -2.8354    0.0416   -2.3260 N   0  0  0  0  0  3           0  0  0
   -6.7478    0.1513    3.3717 C   0  0  0  0  0  4           0  0  0
    0.0000    0.0000    0.0000 C   0  0  0  0  0  4           0  0  0
   -1.9967    0.0232    1.1647 C   0  0  0  0  0  4           0  0  0
   -2.0563    0.0131   -1.1720 C   0  0  0  0  0  4           0  0  0
   -4.0247    0.0600    2.6994 C   0  0  0  0  0  4           0  0  0
   -0.6637    0.0163   -1.2212 C   0  0  0  0  0  4           0  0  0
   -5.8099    0.7272    4.2240 C   0  0  0  0  0  4           0  0  0
   -6.3489   -0.4755    2.1938 C   0  0  0  0  0  4           0  0  0
   -4.4563    0.6816    3.8831 C   0  0  0  0  0  4           0  0  0
   -4.9924   -0.5151    1.8606 C   0  0  0  0  0  4           0  0  0
    0.0493    0.0480   -2.4932 C   0  0  0  0  0  4           0  0  0
    1.9716    0.0000    1.3024 C   0  0  0  0  0  4           0  0  0
    3.4946   -0.0000    1.1835 C   0  0  2  0  0  4           0  0  0
    4.0006   -1.2388    0.4266 C   0  0  0  0  0  4           0  0  0
    4.1663    0.0915    2.5632 C   0  0  0  0  0  4           0  0  0
    5.5235   -1.2420    0.3093 C   0  0  0  0  0  4           0  0  0
    5.6893    0.0899    2.4480 C   0  0  0  0  0  4           0  0  0
    6.1948   -1.1237    1.6740 C   0  0  0  0  0  4           0  0  0
  1  2  2  0     0  0
  1  3  2  0     0  0
  1  8  1  0     0  0
  1 11  1  0     0  0
  4 12  1  0     0  0
  4 22  1  0     0  0
  5 21  2  0     0  0
  6 12  2  0     0  0
  6 13  1  0     0  0
  7 13  2  0     0  0
  7 14  1  0     0  0
  9 13  1  0     0  0
  9 15  1  0     0  0
 10 14  1  0     0  0
 11 17  2  0     0  0
 11 18  1  0     0  0
 12 16  1  0     0  0
 14 16  2  0     0  0
 15 19  2  0     0  0
 15 20  1  0     0  0
 16 21  1  0     0  0
 17 19  1  0     0  0
 18 20  2  0     0  0
 22 23  1  0     0  0
 23 24  1  0     0  0
 23 25  1  0     0  0
 24 26  1  0     0  0
 25 27  1  0     0  0
 26 28  1  0     0  0
 27 28  1  0     0  0
M  END
> <Compound >
3

> <standard_type>
pIC50

> <# Confs.>
25

> <canonical_smiles>
NC1=C(C([H])=O)C(OCC2CCCCC2)=NC(NC3=CC=C(S(=O)(N)=O)C=C3)=N1

> <standard_relation>
=

> <predicted_activity_value>
7.346787486224656

> <actual_activity_value>
7.309803919971486

> <Publication ID>
nan

> <standard_units>
nM

> hash
9676751364705744828

$$$$
3_
XXILIB    08252103513D 0   0.00000     0.00000

 28 30  0     1  0            999 V2000
   -8.4555    0.1621    3.8139 S   0  0  2  0  0  6           0  0  0
   -9.0944   -0.9371    3.1169 O   0  0  0  0  0  2           0  0  0
   -8.5315    0.2733    5.2573 O   0  0  0  0  0  2           0  0  0
    1.3875    0.0000    0.0000 O   0  0  0  0  0  2           0  0  0
   -0.4388   -0.4655   -3.4907 O   0  0  0  0  0  2           0  0  0
   -0.6488   -0.0000    1.1871 N   0  0  0  0  0  3           0  0  0
   -2.7121    0.0362    0.0156 N   0  0  0  0  0  3           0  0  0
   -8.9453    1.6350    3.1092 N   0  0  0  0  0  3           0  0  0
   -2.6608    0.0361    2.3983 N   0  0  0  0  0  3           0  0  0
   -2.8354    0.0416   -2.3260 N   0  0  0  0  0  3           0  0  0
   -6.7478    0.1513    3.3717 C   0  0  0  0  0  4           0  0  0
    0.0000    0.0000    0.0000 C   0  0  0  0  0  4           0  0  0
   -1.9967    0.0232    1.1647 C   0  0  0  0  0  4           0  0  0
   -2.0563    0.0131   -1.1720 C   0  0  0  0  0  4           0  0  0
   -4.0247    0.0600    2.6994 C   0  0  0  0  0  4           0  0  0
   -0.6637    0.0163   -1.2212 C   0  0  0  0  0  4           0  0  0
   -5.8099    0.7272    4.2240 C   0  0  0  0  0  4           0  0  0
   -6.3489   -0.4755    2.1938 C   0  0  0  0  0  4           0  0  0
   -4.4563    0.6816    3.8831 C   0  0  0  0  0  4           0  0  0
   -4.9924   -0.5151    1.8606 C   0  0  0  0  0  4           0  0  0
    0.0493    0.0480   -2.4932 C   0  0  0  0  0  4           0  0  0
    1.9716    0.0000    1.3024 C   0  0  0  0  0  4           0  0  0
    3.4946   -0.0000    1.1835 C   0  0  2  0  0  4           0  0  0
    4.0006    1.2388    0.4266 C   0  0  0  0  0  4           0  0  0
    4.0058   -1.2823    0.5070 C   0  0  0  0  0  4           0  0  0
    5.5231    1.2391    0.3042 C   0  0  0  0  0  4           0  0  0
    5.5283   -1.2846    0.3850 C   0  0  0  0  0  4           0  0  0
    6.0374   -0.0436   -0.3418 C   0  0  0  0  0  4           0  0  0
  1  2  2  0     0  0
  1  3  2  0     0  0
  1  8  1  0     0  0
  1 11  1  0     0  0
  4 12  1  0     0  0
  4 22  1  0     0  0
  5 21  2  0     0  0
  6 12  2  0     0  0
  6 13  1  0     0  0
  7 13  2  0     0  0
  7 14  1  0     0  0
  9 13  1  0     0  0
  9 15  1  0     0  0
 10 14  1  0     0  0
 11 17  2  0     0  0
 11 18  1  0     0  0
 12 16  1  0     0  0
 14 16  2  0     0  0
 15 19  2  0     0  0
 15 20  1  0     0  0
 16 21  1  0     0  0
 17 19  1  0     0  0
 18 20  2  0     0  0
 22 23  1  0     0  0
 23 24  1  0     0  0
 23 25  1  0     0  0
 24 26  1  0     0  0
 25 27  1  0     0  0
 26 28  1  0     0  0
 27 28  1  0     0  0
M  END
> <Compound >
3

> <standard_type>
pIC50

> <# Confs.>
25

> <canonical_smiles>
NC1=C(C([H])=O)C(OCC2CCCCC2)=NC(NC3=CC=C(S(=O)(N)=O)C=C3)=N1

> <standard_relation>
=

> <predicted_activity_value>
7.346787486224656

> <actual_activity_value>
7.309803919971486

> <Publication ID>
nan

> <standard_units>
nM

> hash
9676751364705744828

$$$$
3_
XXILIB    08252103513D 0   0.00000     0.00000

 28 30  0     1  0            999 V2000
   -8.4555    0.1621    3.8139 S   0  0  2  0  0  6           0  0  0
   -9.0944   -0.9371    3.1169 O   0  0  0  0  0  2           0  0  0
   -8.5315    0.2733    5.2573 O   0  0  0  0  0  2           0  0  0
    1.3875    0.0000    0.0000 O   0  0  0  0  0  2           0  0  0
   -0.4388   -0.4655   -3.4907 O   0  0  0  0  0  2           0  0  0
   -0.6488   -0.0000    1.1871 N   0  0  0  0  0  3           0  0  0
   -2.7121    0.0362    0.0156 N   0  0  0  0  0  3           0  0  0
   -8.9453    1.6350    3.1092 N   0  0  0  0  0  3           0  0  0
   -2.6608    0.0361    2.3983 N   0  0  0  0  0  3           0  0  0
   -2.8354    0.0416   -2.3260 N   0  0  0  0  0  3           0  0  0
   -6.7478    0.1513    3.3717 C   0  0  0  0  0  4           0  0  0
    0.0000    0.0000    0.0000 C   0  0  0  0  0  4           0  0  0
   -1.9967    0.0232    1.1647 C   0  0  0  0  0  4           0  0  0
   -2.0563    0.0131   -1.1720 C   0  0  0  0  0  4           0  0  0
   -4.0247    0.0600    2.6994 C   0  0  0  0  0  4           0  0  0
   -0.6637    0.0163   -1.2212 C   0  0  0  0  0  4           0  0  0
   -5.8099    0.7272    4.2240 C   0  0  0  0  0  4           0  0  0
   -6.3489   -0.4755    2.1938 C   0  0  0  0  0  4           0  0  0
   -4.4563    0.6816    3.8831 C   0  0  0  0  0  4           0  0  0
   -4.9924   -0.5151    1.8606 C   0  0  0  0  0  4           0  0  0
    0.0493    0.0480   -2.4932 C   0  0  0  0  0  4           0  0  0
    1.9716    0.0000    1.3024 C   0  0  0  0  0  4           0  0  0
    3.4946   -0.0000    1.1835 C   0  0  2  0  0  4           0  0  0
    4.1676   -0.0000    2.5658 C   0  0  0  0  0  4           0  0  0
    3.9934    1.1908    0.3490 C   0  0  0  0  0  4           0  0  0
    5.6906    0.0029    2.4489 C   0  0  0  0  0  4           0  0  0
    5.5162    1.1947    0.2297 C   0  0  0  0  0  4           0  0  0
    6.1889    1.1673    1.5987 C   0  0  0  0  0  4           0  0  0
  1  2  2  0     0  0
  1  3  2  0     0  0
  1  8  1  0     0  0
  1 11  1  0     0  0
  4 12  1  0     0  0
  4 22  1  0     0  0
  5 21  2  0     0  0
  6 12  2  0     0  0
  6 13  1  0     0  0
  7 13  2  0     0  0
  7 14  1  0     0  0
  9 13  1  0     0  0
  9 15  1  0     0  0
 10 14  1  0     0  0
 11 17  2  0     0  0
 11 18  1  0     0  0
 12 16  1  0     0  0
 14 16  2  0     0  0
 15 19  2  0     0  0
 15 20  1  0     0  0
 16 21  1  0     0  0
 17 19  1  0     0  0
 18 20  2  0     0  0
 22 23  1  0     0  0
 23 24  1  0     0  0
 23 25  1  0     0  0
 24 26  1  0     0  0
 25 27  1  0     0  0
 26 28  1  0     0  0
 27 28  1  0     0  0
M  END
> <Compound >
3

> <standard_type>
pIC50

> <# Confs.>
25

> <canonical_smiles>
NC1=C(C([H])=O)C(OCC2CCCCC2)=NC(NC3=CC=C(S(=O)(N)=O)C=C3)=N1

> <standard_relation>
=

> <predicted_activity_value>
7.346787486224656

> <actual_activity_value>
7.309803919971486

> <Publication ID>
nan

> <standard_units>
nM

> hash
9676751364705744828

$$$$
3_
XXILIB    08252103513D 0   0.00000     0.00000

 28 30  0     1  0            999 V2000
   -0.6078    0.1106    7.9999 S   0  0  2  0  0  6           0  0  0
    0.8298   -0.0659    7.9355 O   0  0  0  0  0  2           0  0  0
   -1.1872    1.2736    8.6427 O   0  0  0  0  0  2           0  0  0
    1.3875    0.0000    0.0000 O   0  0  0  0  0  2           0  0  0
   -0.4388   -0.4655   -3.4907 O   0  0  0  0  0  2           0  0  0
   -0.6488    0.0000    1.1871 N   0  0  0  0  0  3           0  0  0
   -2.7121    0.0362    0.0156 N   0  0  0  0  0  3           0  0  0
   -1.3190   -1.2998    8.6411 N   0  0  0  0  0  3           0  0  0
   -2.6608    0.0361    2.3983 N   0  0  0  0  0  3           0  0  0
   -2.8354    0.0416   -2.3260 N   0  0  0  0  0  3           0  0  0
   -1.2251    0.0544    6.3484 C   0  0  0  0  0  4           0  0  0
    0.0000    0.0000    0.0000 C   0  0  0  0  0  4           0  0  0
   -1.9967    0.0232    1.1647 C   0  0  0  0  0  4           0  0  0
   -2.0563    0.0131   -1.1720 C   0  0  0  0  0  4           0  0  0
   -2.1612    0.0290    3.7029 C   0  0  0  0  0  4           0  0  0
   -0.6637    0.0163   -1.2212 C   0  0  0  0  0  4           0  0  0
   -2.4331    0.6740    6.0409 C   0  0  0  0  0  4           0  0  0
   -0.4733   -0.5709    5.3567 C   0  0  0  0  0  4           0  0  0
   -2.8958    0.6557    4.7233 C   0  0  0  0  0  4           0  0  0
   -0.9450   -0.5849    4.0414 C   0  0  0  0  0  4           0  0  0
    0.0493    0.0480   -2.4932 C   0  0  0  0  0  4           0  0  0
    1.9716    0.0000    1.3024 C   0  0  0  0  0  4           0  0  0
    3.4946   -0.0000    1.1835 C   0  0  2  0  0  4           0  0  0
    4.0006   -1.2388    0.4266 C   0  0  0  0  0  4           0  0  0
    4.1663    0.0915    2.5632 C   0  0  0  0  0  4           0  0  0
    5.5235   -1.2420    0.3093 C   0  0  0  0  0  4           0  0  0
    5.6893    0.0899    2.4480 C   0  0  0  0  0  4           0  0  0
    6.1948   -1.1237    1.6740 C   0  0  0  0  0  4           0  0  0
  1  2  2  0     0  0
  1  3  2  0     0  0
  1  8  1  0     0  0
  1 11  1  0     0  0
  4 12  1  0     0  0
  4 22  1  0     0  0
  5 21  2  0     0  0
  6 12  2  0     0  0
  6 13  1  0     0  0
  7 13  2  0     0  0
  7 14  1  0     0  0
  9 13  1  0     0  0
  9 15  1  0     0  0
 10 14  1  0     0  0
 11 17  2  0     0  0
 11 18  1  0     0  0
 12 16  1  0     0  0
 14 16  2  0     0  0
 15 19  2  0     0  0
 15 20  1  0     0  0
 16 21  1  0     0  0
 17 19  1  0     0  0
 18 20  2  0     0  0
 22 23  1  0     0  0
 23 24  1  0     0  0
 23 25  1  0     0  0
 24 26  1  0     0  0
 25 27  1  0     0  0
 26 28  1  0     0  0
 27 28  1  0     0  0
M  END
> <Compound >
3

> <standard_type>
pIC50

> <# Confs.>
25

> <canonical_smiles>
NC1=C(C([H])=O)C(OCC2CCCCC2)=NC(NC3=CC=C(S(=O)(N)=O)C=C3)=N1

> <standard_relation>
=

> <predicted_activity_value>
7.346787486224656

> <actual_activity_value>
7.309803919971486

> <Publication ID>
nan

> <standard_units>
nM

> hash
9676751364705744828

$$$$
3_
XXILIB    08252103513D 0   0.00000     0.00000

 28 30  0     1  0            999 V2000
   -8.4675    0.0346    3.7697 S   0  0  2  0  0  6           0  0  0
   -8.5830   -0.1456    5.2037 O   0  0  0  0  0  2           0  0  0
   -9.0897    1.1647    3.1086 O   0  0  0  0  0  2           0  0  0
    1.3875    0.0000    0.0000 O   0  0  0  0  0  2           0  0  0
   -0.4388   -0.4655   -3.4907 O   0  0  0  0  0  2           0  0  0
   -0.6488   -0.0000    1.1871 N   0  0  0  0  0  3           0  0  0
   -2.7121    0.0362    0.0156 N   0  0  0  0  0  3           0  0  0
   -8.9336   -1.4043    2.9832 N   0  0  0  0  0  3           0  0  0
   -2.6608    0.0361    2.3983 N   0  0  0  0  0  3           0  0  0
   -2.8354    0.0416   -2.3260 N   0  0  0  0  0  3           0  0  0
   -6.7486    0.0693    3.3748 C   0  0  0  0  0  4           0  0  0
    0.0000    0.0000    0.0000 C   0  0  0  0  0  4           0  0  0
   -1.9967    0.0232    1.1647 C   0  0  0  0  0  4           0  0  0
   -2.0563    0.0131   -1.1720 C   0  0  0  0  0  4           0  0  0
   -4.0247    0.0600    2.6994 C   0  0  0  0  0  4           0  0  0
   -0.6637    0.0163   -1.2212 C   0  0  0  0  0  4           0  0  0
   -5.8321   -0.5446    4.2239 C   0  0  0  0  0  4           0  0  0
   -6.3294    0.6718    2.1913 C   0  0  0  0  0  4           0  0  0
   -4.4774   -0.5437    3.8845 C   0  0  0  0  0  4           0  0  0
   -4.9717    0.6687    1.8607 C   0  0  0  0  0  4           0  0  0
    0.0493    0.0480   -2.4932 C   0  0  0  0  0  4           0  0  0
    1.9716    0.0000    1.3024 C   0  0  0  0  0  4           0  0  0
    3.4946   -0.0000    1.1835 C   0  0  2  0  0  4           0  0  0
    4.0006   -1.2388    0.4266 C   0  0  0  0  0  4           0  0  0
    4.1663    0.0915    2.5632 C   0  0  0  0  0  4           0  0  0
    5.5235   -1.2420    0.3093 C   0  0  0  0  0  4           0  0  0
    5.6893    0.0899    2.4480 C   0  0  0  0  0  4           0  0  0
    6.1948   -1.1237    1.6740 C   0  0  0  0  0  4           0  0  0
  1  2  2  0     0  0
  1  3  2  0     0  0
  1  8  1  0     0  0
  1 11  1  0     0  0
  4 12  1  0     0  0
  4 22  1  0     0  0
  5 21  2  0     0  0
  6 12  2  0     0  0
  6 13  1  0     0  0
  7 13  2  0     0  0
  7 14  1  0     0  0
  9 13  1  0     0  0
  9 15  1  0     0  0
 10 14  1  0     0  0
 11 17  2  0     0  0
 11 18  1  0     0  0
 12 16  1  0     0  0
 14 16  2  0     0  0
 15 19  2  0     0  0
 15 20  1  0     0  0
 16 21  1  0     0  0
 17 19  1  0     0  0
 18 20  2  0     0  0
 22 23  1  0     0  0
 23 24  1  0     0  0
 23 25  1  0     0  0
 24 26  1  0     0  0
 25 27  1  0     0  0
 26 28  1  0     0  0
 27 28  1  0     0  0
M  END
> <Compound >
3

> <standard_type>
pIC50

> <# Confs.>
25

> <canonical_smiles>
NC1=C(C([H])=O)C(OCC2CCCCC2)=NC(NC3=CC=C(S(=O)(N)=O)C=C3)=N1

> <standard_relation>
=

> <predicted_activity_value>
7.346787486224656

> <actual_activity_value>
7.309803919971486

> <Publication ID>
nan

> <standard_units>
nM

> hash
9676751364705744828

$$$$
3_
XXILIB    08252103513D 0   0.00000     0.00000

 28 30  0     1  0            999 V2000
   -8.4675    0.0346    3.7697 S   0  0  2  0  0  6           0  0  0
   -8.5830   -0.1456    5.2037 O   0  0  0  0  0  2           0  0  0
   -9.0897    1.1647    3.1086 O   0  0  0  0  0  2           0  0  0
    1.3875    0.0000    0.0000 O   0  0  0  0  0  2           0  0  0
   -0.4388   -0.4655   -3.4907 O   0  0  0  0  0  2           0  0  0
   -0.6488   -0.0000    1.1871 N   0  0  0  0  0  3           0  0  0
   -2.7121    0.0362    0.0156 N   0  0  0  0  0  3           0  0  0
   -8.9336   -1.4043    2.9832 N   0  0  0  0  0  3           0  0  0
   -2.6608    0.0361    2.3983 N   0  0  0  0  0  3           0  0  0
   -2.8354    0.0416   -2.3260 N   0  0  0  0  0  3           0  0  0
   -6.7486    0.0693    3.3748 C   0  0  0  0  0  4           0  0  0
    0.0000    0.0000    0.0000 C   0  0  0  0  0  4           0  0  0
   -1.9967    0.0232    1.1647 C   0  0  0  0  0  4           0  0  0
   -2.0563    0.0131   -1.1720 C   0  0  0  0  0  4           0  0  0
   -4.0247    0.0600    2.6994 C   0  0  0  0  0  4           0  0  0
   -0.6637    0.0163   -1.2212 C   0  0  0  0  0  4           0  0  0
   -5.8321   -0.5446    4.2239 C   0  0  0  0  0  4           0  0  0
   -6.3294    0.6718    2.1913 C   0  0  0  0  0  4           0  0  0
   -4.4774   -0.5437    3.8845 C   0  0  0  0  0  4           0  0  0
   -4.9717    0.6687    1.8607 C   0  0  0  0  0  4           0  0  0
    0.0493    0.0480   -2.4932 C   0  0  0  0  0  4           0  0  0
    1.9716    0.0000    1.3024 C   0  0  0  0  0  4           0  0  0
    3.4946   -0.0000    1.1835 C   0  0  2  0  0  4           0  0  0
    4.0006    1.2388    0.4266 C   0  0  0  0  0  4           0  0  0
    4.0058   -1.2823    0.5070 C   0  0  0  0  0  4           0  0  0
    5.5231    1.2391    0.3042 C   0  0  0  0  0  4           0  0  0
    5.5283   -1.2846    0.3850 C   0  0  0  0  0  4           0  0  0
    6.0374   -0.0436   -0.3418 C   0  0  0  0  0  4           0  0  0
  1  2  2  0     0  0
  1  3  2  0     0  0
  1  8  1  0     0  0
  1 11  1  0     0  0
  4 12  1  0     0  0
  4 22  1  0     0  0
  5 21  2  0     0  0
  6 12  2  0     0  0
  6 13  1  0     0  0
  7 13  2  0     0  0
  7 14  1  0     0  0
  9 13  1  0     0  0
  9 15  1  0     0  0
 10 14  1  0     0  0
 11 17  2  0     0  0
 11 18  1  0     0  0
 12 16  1  0     0  0
 14 16  2  0     0  0
 15 19  2  0     0  0
 15 20  1  0     0  0
 16 21  1  0     0  0
 17 19  1  0     0  0
 18 20  2  0     0  0
 22 23  1  0     0  0
 23 24  1  0     0  0
 23 25  1  0     0  0
 24 26  1  0     0  0
 25 27  1  0     0  0
 26 28  1  0     0  0
 27 28  1  0     0  0
M  END
> <Compound >
3

> <standard_type>
pIC50

> <# Confs.>
25

> <canonical_smiles>
NC1=C(C([H])=O)C(OCC2CCCCC2)=NC(NC3=CC=C(S(=O)(N)=O)C=C3)=N1

> <standard_relation>
=

> <predicted_activity_value>
7.346787486224656

> <actual_activity_value>
7.309803919971486

> <Publication ID>
nan

> <standard_units>
nM

> hash
9676751364705744828

$$$$
3_
XXILIB    08252103513D 0   0.00000     0.00000

 28 30  0     1  0            999 V2000
   -8.4675    0.0346    3.7697 S   0  0  2  0  0  6           0  0  0
   -8.5830   -0.1456    5.2037 O   0  0  0  0  0  2           0  0  0
   -9.0897    1.1647    3.1086 O   0  0  0  0  0  2           0  0  0
    1.3875    0.0000    0.0000 O   0  0  0  0  0  2           0  0  0
   -0.4388   -0.4655   -3.4907 O   0  0  0  0  0  2           0  0  0
   -0.6488   -0.0000    1.1871 N   0  0  0  0  0  3           0  0  0
   -2.7121    0.0362    0.0156 N   0  0  0  0  0  3           0  0  0
   -8.9336   -1.4043    2.9832 N   0  0  0  0  0  3           0  0  0
   -2.6608    0.0361    2.3983 N   0  0  0  0  0  3           0  0  0
   -2.8354    0.0416   -2.3260 N   0  0  0  0  0  3           0  0  0
   -6.7486    0.0693    3.3748 C   0  0  0  0  0  4           0  0  0
    0.0000    0.0000    0.0000 C   0  0  0  0  0  4           0  0  0
   -1.9967    0.0232    1.1647 C   0  0  0  0  0  4           0  0  0
   -2.0563    0.0131   -1.1720 C   0  0  0  0  0  4           0  0  0
   -4.0247    0.0600    2.6994 C   0  0  0  0  0  4           0  0  0
   -0.6637    0.0163   -1.2212 C   0  0  0  0  0  4           0  0  0
   -5.8321   -0.5446    4.2239 C   0  0  0  0  0  4           0  0  0
   -6.3294    0.6718    2.1913 C   0  0  0  0  0  4           0  0  0
   -4.4774   -0.5437    3.8845 C   0  0  0  0  0  4           0  0  0
   -4.9717    0.6687    1.8607 C   0  0  0  0  0  4           0  0  0
    0.0493    0.0480   -2.4932 C   0  0  0  0  0  4           0  0  0
    1.9716    0.0000    1.3024 C   0  0  0  0  0  4           0  0  0
    3.4946   -0.0000    1.1835 C   0  0  2  0  0  4           0  0  0
    4.1676   -0.0000    2.5658 C   0  0  0  0  0  4           0  0  0
    3.9934    1.1908    0.3490 C   0  0  0  0  0  4           0  0  0
    5.6906    0.0029    2.4489 C   0  0  0  0  0  4           0  0  0
    5.5162    1.1947    0.2297 C   0  0  0  0  0  4           0  0  0
    6.1889    1.1673    1.5987 C   0  0  0  0  0  4           0  0  0
  1  2  2  0     0  0
  1  3  2  0     0  0
  1  8  1  0     0  0
  1 11  1  0     0  0
  4 12  1  0     0  0
  4 22  1  0     0  0
  5 21  2  0     0  0
  6 12  2  0     0  0
  6 13  1  0     0  0
  7 13  2  0     0  0
  7 14  1  0     0  0
  9 13  1  0     0  0
  9 15  1  0     0  0
 10 14  1  0     0  0
 11 17  2  0     0  0
 11 18  1  0     0  0
 12 16  1  0     0  0
 14 16  2  0     0  0
 15 19  2  0     0  0
 15 20  1  0     0  0
 16 21  1  0     0  0
 17 19  1  0     0  0
 18 20  2  0     0  0
 22 23  1  0     0  0
 23 24  1  0     0  0
 23 25  1  0     0  0
 24 26  1  0     0  0
 25 27  1  0     0  0
 26 28  1  0     0  0
 27 28  1  0     0  0
M  END
> <Compound >
3

> <standard_type>
pIC50

> <# Confs.>
25

> <canonical_smiles>
NC1=C(C([H])=O)C(OCC2CCCCC2)=NC(NC3=CC=C(S(=O)(N)=O)C=C3)=N1

> <standard_relation>
=

> <predicted_activity_value>
7.346787486224656

> <actual_activity_value>
7.309803919971486

> <Publication ID>
nan

> <standard_units>
nM

> hash
9676751364705744828

$$$$
3_
XXILIB    08252103513D 0   0.00000     0.00000

 28 30  0     1  0            999 V2000
   -0.6524   -0.0163    8.0164 S   0  0  2  0  0  6           0  0  0
    0.2908    1.0770    8.1481 O   0  0  0  0  0  2           0  0  0
   -1.8163   -0.1034    8.8762 O   0  0  0  0  0  2           0  0  0
    1.3875    0.0000    0.0000 O   0  0  0  0  0  2           0  0  0
   -0.4388   -0.4655   -3.4907 O   0  0  0  0  0  2           0  0  0
   -0.6488    0.0000    1.1871 N   0  0  0  0  0  3           0  0  0
   -2.7121    0.0362    0.0156 N   0  0  0  0  0  3           0  0  0
    0.1926   -1.4961    8.0611 N   0  0  0  0  0  3           0  0  0
   -2.6608    0.0361    2.3983 N   0  0  0  0  0  3           0  0  0
   -2.8354    0.0416   -2.3260 N   0  0  0  0  0  3           0  0  0
   -1.2236   -0.0276    6.3474 C   0  0  0  0  0  4           0  0  0
    0.0000    0.0000    0.0000 C   0  0  0  0  0  4           0  0  0
   -1.9967    0.0232    1.1647 C   0  0  0  0  0  4           0  0  0
   -2.0563    0.0131   -1.1720 C   0  0  0  0  0  4           0  0  0
   -2.1612    0.0290    3.7029 C   0  0  0  0  0  4           0  0  0
   -0.6637    0.0163   -1.2212 C   0  0  0  0  0  4           0  0  0
   -2.4565   -0.5978    6.0430 C   0  0  0  0  0  4           0  0  0
   -0.4547    0.5765    5.3558 C   0  0  0  0  0  4           0  0  0
   -2.9170   -0.5695    4.7248 C   0  0  0  0  0  4           0  0  0
   -0.9232    0.5989    4.0395 C   0  0  0  0  0  4           0  0  0
    0.0493    0.0480   -2.4932 C   0  0  0  0  0  4           0  0  0
    1.9716    0.0000    1.3024 C   0  0  0  0  0  4           0  0  0
    3.4946   -0.0000    1.1835 C   0  0  2  0  0  4           0  0  0
    4.0006   -1.2388    0.4266 C   0  0  0  0  0  4           0  0  0
    4.1663    0.0915    2.5632 C   0  0  0  0  0  4           0  0  0
    5.5235   -1.2420    0.3093 C   0  0  0  0  0  4           0  0  0
    5.6893    0.0899    2.4480 C   0  0  0  0  0  4           0  0  0
    6.1948   -1.1237    1.6740 C   0  0  0  0  0  4           0  0  0
  1  2  2  0     0  0
  1  3  2  0     0  0
  1  8  1  0     0  0
  1 11  1  0     0  0
  4 12  1  0     0  0
  4 22  1  0     0  0
  5 21  2  0     0  0
  6 12  2  0     0  0
  6 13  1  0     0  0
  7 13  2  0     0  0
  7 14  1  0     0  0
  9 13  1  0     0  0
  9 15  1  0     0  0
 10 14  1  0     0  0
 11 17  2  0     0  0
 11 18  1  0     0  0
 12 16  1  0     0  0
 14 16  2  0     0  0
 15 19  2  0     0  0
 15 20  1  0     0  0
 16 21  1  0     0  0
 17 19  1  0     0  0
 18 20  2  0     0  0
 22 23  1  0     0  0
 23 24  1  0     0  0
 23 25  1  0     0  0
 24 26  1  0     0  0
 25 27  1  0     0  0
 26 28  1  0     0  0
 27 28  1  0     0  0
M  END
> <Compound >
3

> <standard_type>
pIC50

> <# Confs.>
25

> <canonical_smiles>
NC1=C(C([H])=O)C(OCC2CCCCC2)=NC(NC3=CC=C(S(=O)(N)=O)C=C3)=N1

> <standard_relation>
=

> <predicted_activity_value>
7.346787486224656

> <actual_activity_value>
7.309803919971486

> <Publication ID>
nan

> <standard_units>
nM

> hash
9676751364705744828

$$$$
3_
XXILIB    08252103513D 0   0.00000     0.00000

 28 30  0     1  0            999 V2000
   -0.6078    0.1106    7.9999 S   0  0  2  0  0  6           0  0  0
    0.8298   -0.0659    7.9355 O   0  0  0  0  0  2           0  0  0
   -1.1872    1.2736    8.6427 O   0  0  0  0  0  2           0  0  0
    1.3875    0.0000    0.0000 O   0  0  0  0  0  2           0  0  0
   -0.4388   -0.4655   -3.4907 O   0  0  0  0  0  2           0  0  0
   -0.6488    0.0000    1.1871 N   0  0  0  0  0  3           0  0  0
   -2.7121    0.0362    0.0156 N   0  0  0  0  0  3           0  0  0
   -1.3190   -1.2998    8.6411 N   0  0  0  0  0  3           0  0  0
   -2.6608    0.0361    2.3983 N   0  0  0  0  0  3           0  0  0
   -2.8354    0.0416   -2.3260 N   0  0  0  0  0  3           0  0  0
   -1.2251    0.0544    6.3484 C   0  0  0  0  0  4           0  0  0
    0.0000    0.0000    0.0000 C   0  0  0  0  0  4           0  0  0
   -1.9967    0.0232    1.1647 C   0  0  0  0  0  4           0  0  0
   -2.0563    0.0131   -1.1720 C   0  0  0  0  0  4           0  0  0
   -2.1612    0.0290    3.7029 C   0  0  0  0  0  4           0  0  0
   -0.6637    0.0163   -1.2212 C   0  0  0  0  0  4           0  0  0
   -2.4331    0.6740    6.0409 C   0  0  0  0  0  4           0  0  0
   -0.4733   -0.5709    5.3567 C   0  0  0  0  0  4           0  0  0
   -2.8958    0.6557    4.7233 C   0  0  0  0  0  4           0  0  0
   -0.9450   -0.5849    4.0414 C   0  0  0  0  0  4           0  0  0
    0.0493    0.0480   -2.4932 C   0  0  0  0  0  4           0  0  0
    1.9716    0.0000    1.3024 C   0  0  0  0  0  4           0  0  0
    3.4946   -0.0000    1.1835 C   0  0  2  0  0  4           0  0  0
    4.1676   -0.0000    2.5658 C   0  0  0  0  0  4           0  0  0
    3.9934    1.1908    0.3490 C   0  0  0  0  0  4           0  0  0
    5.6906    0.0029    2.4489 C   0  0  0  0  0  4           0  0  0
    5.5162    1.1947    0.2297 C   0  0  0  0  0  4           0  0  0
    6.1889    1.1673    1.5987 C   0  0  0  0  0  4           0  0  0
  1  2  2  0     0  0
  1  3  2  0     0  0
  1  8  1  0     0  0
  1 11  1  0     0  0
  4 12  1  0     0  0
  4 22  1  0     0  0
  5 21  2  0     0  0
  6 12  2  0     0  0
  6 13  1  0     0  0
  7 13  2  0     0  0
  7 14  1  0     0  0
  9 13  1  0     0  0
  9 15  1  0     0  0
 10 14  1  0     0  0
 11 17  2  0     0  0
 11 18  1  0     0  0
 12 16  1  0     0  0
 14 16  2  0     0  0
 15 19  2  0     0  0
 15 20  1  0     0  0
 16 21  1  0     0  0
 17 19  1  0     0  0
 18 20  2  0     0  0
 22 23  1  0     0  0
 23 24  1  0     0  0
 23 25  1  0     0  0
 24 26  1  0     0  0
 25 27  1  0     0  0
 26 28  1  0     0  0
 27 28  1  0     0  0
M  END
> <Compound >
3

> <standard_type>
pIC50

> <# Confs.>
25

> <canonical_smiles>
NC1=C(C([H])=O)C(OCC2CCCCC2)=NC(NC3=CC=C(S(=O)(N)=O)C=C3)=N1

> <standard_relation>
=

> <predicted_activity_value>
7.346787486224656

> <actual_activity_value>
7.309803919971486

> <Publication ID>
nan

> <standard_units>
nM

> hash
9676751364705744828

$$$$
3_
XXILIB    08252103513D 0   0.00000     0.00000

 28 30  0     1  0            999 V2000
   -0.6078    0.1106    7.9999 S   0  0  2  0  0  6           0  0  0
    0.8298   -0.0659    7.9355 O   0  0  0  0  0  2           0  0  0
   -1.1872    1.2736    8.6427 O   0  0  0  0  0  2           0  0  0
    1.3875    0.0000    0.0000 O   0  0  0  0  0  2           0  0  0
   -0.4388   -0.4655   -3.4907 O   0  0  0  0  0  2           0  0  0
   -0.6488    0.0000    1.1871 N   0  0  0  0  0  3           0  0  0
   -2.7121    0.0362    0.0156 N   0  0  0  0  0  3           0  0  0
   -1.3190   -1.2998    8.6411 N   0  0  0  0  0  3           0  0  0
   -2.6608    0.0361    2.3983 N   0  0  0  0  0  3           0  0  0
   -2.8354    0.0416   -2.3260 N   0  0  0  0  0  3           0  0  0
   -1.2251    0.0544    6.3484 C   0  0  0  0  0  4           0  0  0
    0.0000    0.0000    0.0000 C   0  0  0  0  0  4           0  0  0
   -1.9967    0.0232    1.1647 C   0  0  0  0  0  4           0  0  0
   -2.0563    0.0131   -1.1720 C   0  0  0  0  0  4           0  0  0
   -2.1612    0.0290    3.7029 C   0  0  0  0  0  4           0  0  0
   -0.6637    0.0163   -1.2212 C   0  0  0  0  0  4           0  0  0
   -2.4331    0.6740    6.0409 C   0  0  0  0  0  4           0  0  0
   -0.4733   -0.5709    5.3567 C   0  0  0  0  0  4           0  0  0
   -2.8958    0.6557    4.7233 C   0  0  0  0  0  4           0  0  0
   -0.9450   -0.5849    4.0414 C   0  0  0  0  0  4           0  0  0
    0.0493    0.0480   -2.4932 C   0  0  0  0  0  4           0  0  0
    1.9716    0.0000    1.3024 C   0  0  0  0  0  4           0  0  0
    3.4946   -0.0000    1.1835 C   0  0  2  0  0  4           0  0  0
    4.0006    1.2388    0.4266 C   0  0  0  0  0  4           0  0  0
    4.0058   -1.2823    0.5070 C   0  0  0  0  0  4           0  0  0
    5.5231    1.2391    0.3042 C   0  0  0  0  0  4           0  0  0
    5.5283   -1.2846    0.3850 C   0  0  0  0  0  4           0  0  0
    6.0374   -0.0436   -0.3418 C   0  0  0  0  0  4           0  0  0
  1  2  2  0     0  0
  1  3  2  0     0  0
  1  8  1  0     0  0
  1 11  1  0     0  0
  4 12  1  0     0  0
  4 22  1  0     0  0
  5 21  2  0     0  0
  6 12  2  0     0  0
  6 13  1  0     0  0
  7 13  2  0     0  0
  7 14  1  0     0  0
  9 13  1  0     0  0
  9 15  1  0     0  0
 10 14  1  0     0  0
 11 17  2  0     0  0
 11 18  1  0     0  0
 12 16  1  0     0  0
 14 16  2  0     0  0
 15 19  2  0     0  0
 15 20  1  0     0  0
 16 21  1  0     0  0
 17 19  1  0     0  0
 18 20  2  0     0  0
 22 23  1  0     0  0
 23 24  1  0     0  0
 23 25  1  0     0  0
 24 26  1  0     0  0
 25 27  1  0     0  0
 26 28  1  0     0  0
 27 28  1  0     0  0
M  END
> <Compound >
3

> <standard_type>
pIC50

> <# Confs.>
25

> <canonical_smiles>
NC1=C(C([H])=O)C(OCC2CCCCC2)=NC(NC3=CC=C(S(=O)(N)=O)C=C3)=N1

> <standard_relation>
=

> <predicted_activity_value>
7.346787486224656

> <actual_activity_value>
7.309803919971486

> <Publication ID>
nan

> <standard_units>
nM

> hash
9676751364705744828

$$$$
3_
XXILIB    08252103513D 0   0.00000     0.00000

 28 30  0     1  0            999 V2000
   -8.4675    0.0346    3.7697 S   0  0  2  0  0  6           0  0  0
   -9.2038    0.1975    2.5314 O   0  0  0  0  0  2           0  0  0
   -8.6951   -1.1128    4.6260 O   0  0  0  0  0  2           0  0  0
    1.3875    0.0000    0.0000 O   0  0  0  0  0  2           0  0  0
   -0.4388   -0.4655   -3.4907 O   0  0  0  0  0  2           0  0  0
   -0.6488   -0.0000    1.1871 N   0  0  0  0  0  3           0  0  0
   -2.7121    0.0362    0.0156 N   0  0  0  0  0  3           0  0  0
   -8.5987    1.4613    4.6934 N   0  0  0  0  0  3           0  0  0
   -2.6608    0.0361    2.3983 N   0  0  0  0  0  3           0  0  0
   -2.8354    0.0416   -2.3260 N   0  0  0  0  0  3           0  0  0
   -6.7486    0.0693    3.3748 C   0  0  0  0  0  4           0  0  0
    0.0000    0.0000    0.0000 C   0  0  0  0  0  4           0  0  0
   -1.9967    0.0232    1.1647 C   0  0  0  0  0  4           0  0  0
   -2.0563    0.0131   -1.1720 C   0  0  0  0  0  4           0  0  0
   -4.0247    0.0600    2.6994 C   0  0  0  0  0  4           0  0  0
   -0.6637    0.0163   -1.2212 C   0  0  0  0  0  4           0  0  0
   -5.8321   -0.5446    4.2239 C   0  0  0  0  0  4           0  0  0
   -6.3294    0.6718    2.1913 C   0  0  0  0  0  4           0  0  0
   -4.4774   -0.5437    3.8845 C   0  0  0  0  0  4           0  0  0
   -4.9717    0.6687    1.8607 C   0  0  0  0  0  4           0  0  0
    0.0493    0.0480   -2.4932 C   0  0  0  0  0  4           0  0  0
    1.9716    0.0000    1.3024 C   0  0  0  0  0  4           0  0  0
    3.4946   -0.0000    1.1835 C   0  0  2  0  0  4           0  0  0
    4.0006   -1.2388    0.4266 C   0  0  0  0  0  4           0  0  0
    4.1663    0.0915    2.5632 C   0  0  0  0  0  4           0  0  0
    5.5235   -1.2420    0.3093 C   0  0  0  0  0  4           0  0  0
    5.6893    0.0899    2.4480 C   0  0  0  0  0  4           0  0  0
    6.1948   -1.1237    1.6740 C   0  0  0  0  0  4           0  0  0
  1  2  2  0     0  0
  1  3  2  0     0  0
  1  8  1  0     0  0
  1 11  1  0     0  0
  4 12  1  0     0  0
  4 22  1  0     0  0
  5 21  2  0     0  0
  6 12  2  0     0  0
  6 13  1  0     0  0
  7 13  2  0     0  0
  7 14  1  0     0  0
  9 13  1  0     0  0
  9 15  1  0     0  0
 10 14  1  0     0  0
 11 17  2  0     0  0
 11 18  1  0     0  0
 12 16  1  0     0  0
 14 16  2  0     0  0
 15 19  2  0     0  0
 15 20  1  0     0  0
 16 21  1  0     0  0
 17 19  1  0     0  0
 18 20  2  0     0  0
 22 23  1  0     0  0
 23 24  1  0     0  0
 23 25  1  0     0  0
 24 26  1  0     0  0
 25 27  1  0     0  0
 26 28  1  0     0  0
 27 28  1  0     0  0
M  END
> <Compound >
3

> <standard_type>
pIC50

> <# Confs.>
25

> <canonical_smiles>
NC1=C(C([H])=O)C(OCC2CCCCC2)=NC(NC3=CC=C(S(=O)(N)=O)C=C3)=N1

> <standard_relation>
=

> <predicted_activity_value>
7.346787486224656

> <actual_activity_value>
7.309803919971486

> <Publication ID>
nan

> <standard_units>
nM

> hash
9676751364705744828

$$$$
3_
XXILIB    08252103513D 0   0.00000     0.00000

 28 30  0     1  0            999 V2000
   -0.6524   -0.0163    8.0164 S   0  0  2  0  0  6           0  0  0
    0.2908    1.0770    8.1481 O   0  0  0  0  0  2           0  0  0
   -1.8163   -0.1034    8.8762 O   0  0  0  0  0  2           0  0  0
    1.3875    0.0000    0.0000 O   0  0  0  0  0  2           0  0  0
   -0.4388   -0.4655   -3.4907 O   0  0  0  0  0  2           0  0  0
   -0.6488    0.0000    1.1871 N   0  0  0  0  0  3           0  0  0
   -2.7121    0.0362    0.0156 N   0  0  0  0  0  3           0  0  0
    0.1926   -1.4961    8.0611 N   0  0  0  0  0  3           0  0  0
   -2.6608    0.0361    2.3983 N   0  0  0  0  0  3           0  0  0
   -2.8354    0.0416   -2.3260 N   0  0  0  0  0  3           0  0  0
   -1.2236   -0.0276    6.3474 C   0  0  0  0  0  4           0  0  0
    0.0000    0.0000    0.0000 C   0  0  0  0  0  4           0  0  0
   -1.9967    0.0232    1.1647 C   0  0  0  0  0  4           0  0  0
   -2.0563    0.0131   -1.1720 C   0  0  0  0  0  4           0  0  0
   -2.1612    0.0290    3.7029 C   0  0  0  0  0  4           0  0  0
   -0.6637    0.0163   -1.2212 C   0  0  0  0  0  4           0  0  0
   -2.4565   -0.5978    6.0430 C   0  0  0  0  0  4           0  0  0
   -0.4547    0.5765    5.3558 C   0  0  0  0  0  4           0  0  0
   -2.9170   -0.5695    4.7248 C   0  0  0  0  0  4           0  0  0
   -0.9232    0.5989    4.0395 C   0  0  0  0  0  4           0  0  0
    0.0493    0.0480   -2.4932 C   0  0  0  0  0  4           0  0  0
    1.9716    0.0000    1.3024 C   0  0  0  0  0  4           0  0  0
    3.4946   -0.0000    1.1835 C   0  0  2  0  0  4           0  0  0
    4.1676   -0.0000    2.5658 C   0  0  0  0  0  4           0  0  0
    3.9934    1.1908    0.3490 C   0  0  0  0  0  4           0  0  0
    5.6906    0.0029    2.4489 C   0  0  0  0  0  4           0  0  0
    5.5162    1.1947    0.2297 C   0  0  0  0  0  4           0  0  0
    6.1889    1.1673    1.5987 C   0  0  0  0  0  4           0  0  0
  1  2  2  0     0  0
  1  3  2  0     0  0
  1  8  1  0     0  0
  1 11  1  0     0  0
  4 12  1  0     0  0
  4 22  1  0     0  0
  5 21  2  0     0  0
  6 12  2  0     0  0
  6 13  1  0     0  0
  7 13  2  0     0  0
  7 14  1  0     0  0
  9 13  1  0     0  0
  9 15  1  0     0  0
 10 14  1  0     0  0
 11 17  2  0     0  0
 11 18  1  0     0  0
 12 16  1  0     0  0
 14 16  2  0     0  0
 15 19  2  0     0  0
 15 20  1  0     0  0
 16 21  1  0     0  0
 17 19  1  0     0  0
 18 20  2  0     0  0
 22 23  1  0     0  0
 23 24  1  0     0  0
 23 25  1  0     0  0
 24 26  1  0     0  0
 25 27  1  0     0  0
 26 28  1  0     0  0
 27 28  1  0     0  0
M  END
> <Compound >
3

> <standard_type>
pIC50

> <# Confs.>
25

> <canonical_smiles>
NC1=C(C([H])=O)C(OCC2CCCCC2)=NC(NC3=CC=C(S(=O)(N)=O)C=C3)=N1

> <standard_relation>
=

> <predicted_activity_value>
7.346787486224656

> <actual_activity_value>
7.309803919971486

> <Publication ID>
nan

> <standard_units>
nM

> hash
9676751364705744828

$$$$
3_
XXILIB    08252103513D 0   0.00000     0.00000

 28 30  0     1  0            999 V2000
   -0.6524   -0.0163    8.0164 S   0  0  2  0  0  6           0  0  0
   -1.3125   -1.1038    8.7117 O   0  0  0  0  0  2           0  0  0
    0.7939    0.0765    7.9816 O   0  0  0  0  0  2           0  0  0
    1.3875    0.0000    0.0000 O   0  0  0  0  0  2           0  0  0
   -0.4388   -0.4655   -3.4907 O   0  0  0  0  0  2           0  0  0
   -0.6488    0.0000    1.1871 N   0  0  0  0  0  3           0  0  0
   -2.7121    0.0362    0.0156 N   0  0  0  0  0  3           0  0  0
   -1.2990    1.4676    8.5515 N   0  0  0  0  0  3           0  0  0
   -2.6608    0.0361    2.3983 N   0  0  0  0  0  3           0  0  0
   -2.8354    0.0416   -2.3260 N   0  0  0  0  0  3           0  0  0
   -1.2236   -0.0276    6.3474 C   0  0  0  0  0  4           0  0  0
    0.0000    0.0000    0.0000 C   0  0  0  0  0  4           0  0  0
   -1.9967    0.0232    1.1647 C   0  0  0  0  0  4           0  0  0
   -2.0563    0.0131   -1.1720 C   0  0  0  0  0  4           0  0  0
   -2.1612    0.0290    3.7029 C   0  0  0  0  0  4           0  0  0
   -0.6637    0.0163   -1.2212 C   0  0  0  0  0  4           0  0  0
   -2.4565   -0.5978    6.0430 C   0  0  0  0  0  4           0  0  0
   -0.4547    0.5765    5.3558 C   0  0  0  0  0  4           0  0  0
   -2.9170   -0.5695    4.7248 C   0  0  0  0  0  4           0  0  0
   -0.9232    0.5989    4.0395 C   0  0  0  0  0  4           0  0  0
    0.0493    0.0480   -2.4932 C   0  0  0  0  0  4           0  0  0
    1.9716    0.0000    1.3024 C   0  0  0  0  0  4           0  0  0
    3.4946   -0.0000    1.1835 C   0  0  2  0  0  4           0  0  0
    4.0006   -1.2388    0.4266 C   0  0  0  0  0  4           0  0  0
    4.1663    0.0915    2.5632 C   0  0  0  0  0  4           0  0  0
    5.5235   -1.2420    0.3093 C   0  0  0  0  0  4           0  0  0
    5.6893    0.0899    2.4480 C   0  0  0  0  0  4           0  0  0
    6.1948   -1.1237    1.6740 C   0  0  0  0  0  4           0  0  0
  1  2  2  0     0  0
  1  3  2  0     0  0
  1  8  1  0     0  0
  1 11  1  0     0  0
  4 12  1  0     0  0
  4 22  1  0     0  0
  5 21  2  0     0  0
  6 12  2  0     0  0
  6 13  1  0     0  0
  7 13  2  0     0  0
  7 14  1  0     0  0
  9 13  1  0     0  0
  9 15  1  0     0  0
 10 14  1  0     0  0
 11 17  2  0     0  0
 11 18  1  0     0  0
 12 16  1  0     0  0
 14 16  2  0     0  0
 15 19  2  0     0  0
 15 20  1  0     0  0
 16 21  1  0     0  0
 17 19  1  0     0  0
 18 20  2  0     0  0
 22 23  1  0     0  0
 23 24  1  0     0  0
 23 25  1  0     0  0
 24 26  1  0     0  0
 25 27  1  0     0  0
 26 28  1  0     0  0
 27 28  1  0     0  0
M  END
> <Compound >
3

> <standard_type>
pIC50

> <# Confs.>
25

> <canonical_smiles>
NC1=C(C([H])=O)C(OCC2CCCCC2)=NC(NC3=CC=C(S(=O)(N)=O)C=C3)=N1

> <standard_relation>
=

> <predicted_activity_value>
7.346787486224656

> <actual_activity_value>
7.309803919971486

> <Publication ID>
nan

> <standard_units>
nM

> hash
9676751364705744828

$$$$
3_
XXILIB    08252103513D 0   0.00000     0.00000

 28 30  0     1  0            999 V2000
   -8.4675    0.0346    3.7697 S   0  0  2  0  0  6           0  0  0
   -9.2038    0.1975    2.5314 O   0  0  0  0  0  2           0  0  0
   -8.6951   -1.1128    4.6260 O   0  0  0  0  0  2           0  0  0
    1.3875    0.0000    0.0000 O   0  0  0  0  0  2           0  0  0
   -0.4388   -0.4655   -3.4907 O   0  0  0  0  0  2           0  0  0
   -0.6488   -0.0000    1.1871 N   0  0  0  0  0  3           0  0  0
   -2.7121    0.0362    0.0156 N   0  0  0  0  0  3           0  0  0
   -8.5987    1.4613    4.6934 N   0  0  0  0  0  3           0  0  0
   -2.6608    0.0361    2.3983 N   0  0  0  0  0  3           0  0  0
   -2.8354    0.0416   -2.3260 N   0  0  0  0  0  3           0  0  0
   -6.7486    0.0693    3.3748 C   0  0  0  0  0  4           0  0  0
    0.0000    0.0000    0.0000 C   0  0  0  0  0  4           0  0  0
   -1.9967    0.0232    1.1647 C   0  0  0  0  0  4           0  0  0
   -2.0563    0.0131   -1.1720 C   0  0  0  0  0  4           0  0  0
   -4.0247    0.0600    2.6994 C   0  0  0  0  0  4           0  0  0
   -0.6637    0.0163   -1.2212 C   0  0  0  0  0  4           0  0  0
   -5.8321   -0.5446    4.2239 C   0  0  0  0  0  4           0  0  0
   -6.3294    0.6718    2.1913 C   0  0  0  0  0  4           0  0  0
   -4.4774   -0.5437    3.8845 C   0  0  0  0  0  4           0  0  0
   -4.9717    0.6687    1.8607 C   0  0  0  0  0  4           0  0  0
    0.0493    0.0480   -2.4932 C   0  0  0  0  0  4           0  0  0
    1.9716    0.0000    1.3024 C   0  0  0  0  0  4           0  0  0
    3.4946   -0.0000    1.1835 C   0  0  2  0  0  4           0  0  0
    4.0006    1.2388    0.4266 C   0  0  0  0  0  4           0  0  0
    4.0058   -1.2823    0.5070 C   0  0  0  0  0  4           0  0  0
    5.5231    1.2391    0.3042 C   0  0  0  0  0  4           0  0  0
    5.5283   -1.2846    0.3850 C   0  0  0  0  0  4           0  0  0
    6.0374   -0.0436   -0.3418 C   0  0  0  0  0  4           0  0  0
  1  2  2  0     0  0
  1  3  2  0     0  0
  1  8  1  0     0  0
  1 11  1  0     0  0
  4 12  1  0     0  0
  4 22  1  0     0  0
  5 21  2  0     0  0
  6 12  2  0     0  0
  6 13  1  0     0  0
  7 13  2  0     0  0
  7 14  1  0     0  0
  9 13  1  0     0  0
  9 15  1  0     0  0
 10 14  1  0     0  0
 11 17  2  0     0  0
 11 18  1  0     0  0
 12 16  1  0     0  0
 14 16  2  0     0  0
 15 19  2  0     0  0
 15 20  1  0     0  0
 16 21  1  0     0  0
 17 19  1  0     0  0
 18 20  2  0     0  0
 22 23  1  0     0  0
 23 24  1  0     0  0
 23 25  1  0     0  0
 24 26  1  0     0  0
 25 27  1  0     0  0
 26 28  1  0     0  0
 27 28  1  0     0  0
M  END
> <Compound >
3

> <standard_type>
pIC50

> <# Confs.>
25

> <canonical_smiles>
NC1=C(C([H])=O)C(OCC2CCCCC2)=NC(NC3=CC=C(S(=O)(N)=O)C=C3)=N1

> <standard_relation>
=

> <predicted_activity_value>
7.346787486224656

> <actual_activity_value>
7.309803919971486

> <Publication ID>
nan

> <standard_units>
nM

> hash
9676751364705744828

$$$$
3_
XXILIB    08252103513D 0   0.00000     0.00000

 28 30  0     1  0            999 V2000
   -0.6078    0.1106    7.9999 S   0  0  2  0  0  6           0  0  0
   -1.7395    0.3150    8.8829 O   0  0  0  0  0  2           0  0  0
    0.2768   -1.0247    8.1737 O   0  0  0  0  0  2           0  0  0
    1.3875    0.0000    0.0000 O   0  0  0  0  0  2           0  0  0
   -0.4388   -0.4655   -3.4907 O   0  0  0  0  0  2           0  0  0
   -0.6488    0.0000    1.1871 N   0  0  0  0  0  3           0  0  0
   -2.7121    0.0362    0.0156 N   0  0  0  0  0  3           0  0  0
    0.3180    1.5405    7.9326 N   0  0  0  0  0  3           0  0  0
   -2.6608    0.0361    2.3983 N   0  0  0  0  0  3           0  0  0
   -2.8354    0.0416   -2.3260 N   0  0  0  0  0  3           0  0  0
   -1.2251    0.0544    6.3484 C   0  0  0  0  0  4           0  0  0
    0.0000    0.0000    0.0000 C   0  0  0  0  0  4           0  0  0
   -1.9967    0.0232    1.1647 C   0  0  0  0  0  4           0  0  0
   -2.0563    0.0131   -1.1720 C   0  0  0  0  0  4           0  0  0
   -2.1612    0.0290    3.7029 C   0  0  0  0  0  4           0  0  0
   -0.6637    0.0163   -1.2212 C   0  0  0  0  0  4           0  0  0
   -2.4331    0.6740    6.0409 C   0  0  0  0  0  4           0  0  0
   -0.4733   -0.5709    5.3567 C   0  0  0  0  0  4           0  0  0
   -2.8958    0.6557    4.7233 C   0  0  0  0  0  4           0  0  0
   -0.9450   -0.5849    4.0414 C   0  0  0  0  0  4           0  0  0
    0.0493    0.0480   -2.4932 C   0  0  0  0  0  4           0  0  0
    1.9716    0.0000    1.3024 C   0  0  0  0  0  4           0  0  0
    3.4946   -0.0000    1.1835 C   0  0  2  0  0  4           0  0  0
    4.0006   -1.2388    0.4266 C   0  0  0  0  0  4           0  0  0
    4.1663    0.0915    2.5632 C   0  0  0  0  0  4           0  0  0
    5.5235   -1.2420    0.3093 C   0  0  0  0  0  4           0  0  0
    5.6893    0.0899    2.4480 C   0  0  0  0  0  4           0  0  0
    6.1948   -1.1237    1.6740 C   0  0  0  0  0  4           0  0  0
  1  2  2  0     0  0
  1  3  2  0     0  0
  1  8  1  0     0  0
  1 11  1  0     0  0
  4 12  1  0     0  0
  4 22  1  0     0  0
  5 21  2  0     0  0
  6 12  2  0     0  0
  6 13  1  0     0  0
  7 13  2  0     0  0
  7 14  1  0     0  0
  9 13  1  0     0  0
  9 15  1  0     0  0
 10 14  1  0     0  0
 11 17  2  0     0  0
 11 18  1  0     0  0
 12 16  1  0     0  0
 14 16  2  0     0  0
 15 19  2  0     0  0
 15 20  1  0     0  0
 16 21  1  0     0  0
 17 19  1  0     0  0
 18 20  2  0     0  0
 22 23  1  0     0  0
 23 24  1  0     0  0
 23 25  1  0     0  0
 24 26  1  0     0  0
 25 27  1  0     0  0
 26 28  1  0     0  0
 27 28  1  0     0  0
M  END
> <Compound >
3

> <standard_type>
pIC50

> <# Confs.>
25

> <canonical_smiles>
NC1=C(C([H])=O)C(OCC2CCCCC2)=NC(NC3=CC=C(S(=O)(N)=O)C=C3)=N1

> <standard_relation>
=

> <predicted_activity_value>
7.346787486224656

> <actual_activity_value>
7.309803919971486

> <Publication ID>
nan

> <standard_units>
nM

> hash
9676751364705744828

$$$$
3_
XXILIB    08252103513D 0   0.00000     0.00000

 28 30  0     1  0            999 V2000
   -8.4555    0.1621    3.8139 S   0  0  2  0  0  6           0  0  0
   -8.6629    1.2665    4.7301 O   0  0  0  0  0  2           0  0  0
   -9.2238    0.0561    2.5891 O   0  0  0  0  0  2           0  0  0
    1.3875    0.0000    0.0000 O   0  0  0  0  0  2           0  0  0
   -0.4388   -0.4655   -3.4907 O   0  0  0  0  0  2           0  0  0
   -0.6488   -0.0000    1.1871 N   0  0  0  0  0  3           0  0  0
   -2.7121    0.0362    0.0156 N   0  0  0  0  0  3           0  0  0
   -8.5591   -1.3072    4.6723 N   0  0  0  0  0  3           0  0  0
   -2.6608    0.0361    2.3983 N   0  0  0  0  0  3           0  0  0
   -2.8354    0.0416   -2.3260 N   0  0  0  0  0  3           0  0  0
   -6.7478    0.1513    3.3717 C   0  0  0  0  0  4           0  0  0
    0.0000    0.0000    0.0000 C   0  0  0  0  0  4           0  0  0
   -1.9967    0.0232    1.1647 C   0  0  0  0  0  4           0  0  0
   -2.0563    0.0131   -1.1720 C   0  0  0  0  0  4           0  0  0
   -4.0247    0.0600    2.6994 C   0  0  0  0  0  4           0  0  0
   -0.6637    0.0163   -1.2212 C   0  0  0  0  0  4           0  0  0
   -5.8099    0.7272    4.2240 C   0  0  0  0  0  4           0  0  0
   -6.3489   -0.4755    2.1938 C   0  0  0  0  0  4           0  0  0
   -4.4563    0.6816    3.8831 C   0  0  0  0  0  4           0  0  0
   -4.9924   -0.5151    1.8606 C   0  0  0  0  0  4           0  0  0
    0.0493    0.0480   -2.4932 C   0  0  0  0  0  4           0  0  0
    1.9716    0.0000    1.3024 C   0  0  0  0  0  4           0  0  0
    3.4946   -0.0000    1.1835 C   0  0  2  0  0  4           0  0  0
    4.0006   -1.2388    0.4266 C   0  0  0  0  0  4           0  0  0
    4.1663    0.0915    2.5632 C   0  0  0  0  0  4           0  0  0
    5.5235   -1.2420    0.3093 C   0  0  0  0  0  4           0  0  0
    5.6893    0.0899    2.4480 C   0  0  0  0  0  4           0  0  0
    6.1948   -1.1237    1.6740 C   0  0  0  0  0  4           0  0  0
  1  2  2  0     0  0
  1  3  2  0     0  0
  1  8  1  0     0  0
  1 11  1  0     0  0
  4 12  1  0     0  0
  4 22  1  0     0  0
  5 21  2  0     0  0
  6 12  2  0     0  0
  6 13  1  0     0  0
  7 13  2  0     0  0
  7 14  1  0     0  0
  9 13  1  0     0  0
  9 15  1  0     0  0
 10 14  1  0     0  0
 11 17  2  0     0  0
 11 18  1  0     0  0
 12 16  1  0     0  0
 14 16  2  0     0  0
 15 19  2  0     0  0
 15 20  1  0     0  0
 16 21  1  0     0  0
 17 19  1  0     0  0
 18 20  2  0     0  0
 22 23  1  0     0  0
 23 24  1  0     0  0
 23 25  1  0     0  0
 24 26  1  0     0  0
 25 27  1  0     0  0
 26 28  1  0     0  0
 27 28  1  0     0  0
M  END
> <Compound >
3

> <standard_type>
pIC50

> <# Confs.>
25

> <canonical_smiles>
NC1=C(C([H])=O)C(OCC2CCCCC2)=NC(NC3=CC=C(S(=O)(N)=O)C=C3)=N1

> <standard_relation>
=

> <predicted_activity_value>
7.346787486224656

> <actual_activity_value>
7.309803919971486

> <Publication ID>
nan

> <standard_units>
nM

> hash
9676751364705744828

$$$$
3_
XXILIB    08252103513D 0   0.00000     0.00000

 28 30  0     1  0            999 V2000
   -0.6524   -0.0163    8.0164 S   0  0  2  0  0  6           0  0  0
    0.2908    1.0770    8.1481 O   0  0  0  0  0  2           0  0  0
   -1.8163   -0.1034    8.8762 O   0  0  0  0  0  2           0  0  0
    1.3875    0.0000    0.0000 O   0  0  0  0  0  2           0  0  0
   -0.4388   -0.4655   -3.4907 O   0  0  0  0  0  2           0  0  0
   -0.6488    0.0000    1.1871 N   0  0  0  0  0  3           0  0  0
   -2.7121    0.0362    0.0156 N   0  0  0  0  0  3           0  0  0
    0.1926   -1.4961    8.0611 N   0  0  0  0  0  3           0  0  0
   -2.6608    0.0361    2.3983 N   0  0  0  0  0  3           0  0  0
   -2.8354    0.0416   -2.3260 N   0  0  0  0  0  3           0  0  0
   -1.2236   -0.0276    6.3474 C   0  0  0  0  0  4           0  0  0
    0.0000    0.0000    0.0000 C   0  0  0  0  0  4           0  0  0
   -1.9967    0.0232    1.1647 C   0  0  0  0  0  4           0  0  0
   -2.0563    0.0131   -1.1720 C   0  0  0  0  0  4           0  0  0
   -2.1612    0.0290    3.7029 C   0  0  0  0  0  4           0  0  0
   -0.6637    0.0163   -1.2212 C   0  0  0  0  0  4           0  0  0
   -2.4565   -0.5978    6.0430 C   0  0  0  0  0  4           0  0  0
   -0.4547    0.5765    5.3558 C   0  0  0  0  0  4           0  0  0
   -2.9170   -0.5695    4.7248 C   0  0  0  0  0  4           0  0  0
   -0.9232    0.5989    4.0395 C   0  0  0  0  0  4           0  0  0
    0.0493    0.0480   -2.4932 C   0  0  0  0  0  4           0  0  0
    1.9716    0.0000    1.3024 C   0  0  0  0  0  4           0  0  0
    3.4946   -0.0000    1.1835 C   0  0  2  0  0  4           0  0  0
    4.0006    1.2388    0.4266 C   0  0  0  0  0  4           0  0  0
    4.0058   -1.2823    0.5070 C   0  0  0  0  0  4           0  0  0
    5.5231    1.2391    0.3042 C   0  0  0  0  0  4           0  0  0
    5.5283   -1.2846    0.3850 C   0  0  0  0  0  4           0  0  0
    6.0374   -0.0436   -0.3418 C   0  0  0  0  0  4           0  0  0
  1  2  2  0     0  0
  1  3  2  0     0  0
  1  8  1  0     0  0
  1 11  1  0     0  0
  4 12  1  0     0  0
  4 22  1  0     0  0
  5 21  2  0     0  0
  6 12  2  0     0  0
  6 13  1  0     0  0
  7 13  2  0     0  0
  7 14  1  0     0  0
  9 13  1  0     0  0
  9 15  1  0     0  0
 10 14  1  0     0  0
 11 17  2  0     0  0
 11 18  1  0     0  0
 12 16  1  0     0  0
 14 16  2  0     0  0
 15 19  2  0     0  0
 15 20  1  0     0  0
 16 21  1  0     0  0
 17 19  1  0     0  0
 18 20  2  0     0  0
 22 23  1  0     0  0
 23 24  1  0     0  0
 23 25  1  0     0  0
 24 26  1  0     0  0
 25 27  1  0     0  0
 26 28  1  0     0  0
 27 28  1  0     0  0
M  END
> <Compound >
3

> <standard_type>
pIC50

> <# Confs.>
25

> <canonical_smiles>
NC1=C(C([H])=O)C(OCC2CCCCC2)=NC(NC3=CC=C(S(=O)(N)=O)C=C3)=N1

> <standard_relation>
=

> <predicted_activity_value>
7.346787486224656

> <actual_activity_value>
7.309803919971486

> <Publication ID>
nan

> <standard_units>
nM

> hash
9676751364705744828

$$$$
3_
XXILIB    08252103513D 0   0.00000     0.00000

 28 30  0     1  0            999 V2000
   -8.4555    0.1621    3.8139 S   0  0  2  0  0  6           0  0  0
   -8.6629    1.2665    4.7301 O   0  0  0  0  0  2           0  0  0
   -9.2238    0.0561    2.5891 O   0  0  0  0  0  2           0  0  0
    1.3875    0.0000    0.0000 O   0  0  0  0  0  2           0  0  0
   -0.4388   -0.4655   -3.4907 O   0  0  0  0  0  2           0  0  0
   -0.6488   -0.0000    1.1871 N   0  0  0  0  0  3           0  0  0
   -2.7121    0.0362    0.0156 N   0  0  0  0  0  3           0  0  0
   -8.5591   -1.3072    4.6723 N   0  0  0  0  0  3           0  0  0
   -2.6608    0.0361    2.3983 N   0  0  0  0  0  3           0  0  0
   -2.8354    0.0416   -2.3260 N   0  0  0  0  0  3           0  0  0
   -6.7478    0.1513    3.3717 C   0  0  0  0  0  4           0  0  0
    0.0000    0.0000    0.0000 C   0  0  0  0  0  4           0  0  0
   -1.9967    0.0232    1.1647 C   0  0  0  0  0  4           0  0  0
   -2.0563    0.0131   -1.1720 C   0  0  0  0  0  4           0  0  0
   -4.0247    0.0600    2.6994 C   0  0  0  0  0  4           0  0  0
   -0.6637    0.0163   -1.2212 C   0  0  0  0  0  4           0  0  0
   -5.8099    0.7272    4.2240 C   0  0  0  0  0  4           0  0  0
   -6.3489   -0.4755    2.1938 C   0  0  0  0  0  4           0  0  0
   -4.4563    0.6816    3.8831 C   0  0  0  0  0  4           0  0  0
   -4.9924   -0.5151    1.8606 C   0  0  0  0  0  4           0  0  0
    0.0493    0.0480   -2.4932 C   0  0  0  0  0  4           0  0  0
    1.9716    0.0000    1.3024 C   0  0  0  0  0  4           0  0  0
    3.4946   -0.0000    1.1835 C   0  0  2  0  0  4           0  0  0
    4.0006    1.2388    0.4266 C   0  0  0  0  0  4           0  0  0
    4.0058   -1.2823    0.5070 C   0  0  0  0  0  4           0  0  0
    5.5231    1.2391    0.3042 C   0  0  0  0  0  4           0  0  0
    5.5283   -1.2846    0.3850 C   0  0  0  0  0  4           0  0  0
    6.0374   -0.0436   -0.3418 C   0  0  0  0  0  4           0  0  0
  1  2  2  0     0  0
  1  3  2  0     0  0
  1  8  1  0     0  0
  1 11  1  0     0  0
  4 12  1  0     0  0
  4 22  1  0     0  0
  5 21  2  0     0  0
  6 12  2  0     0  0
  6 13  1  0     0  0
  7 13  2  0     0  0
  7 14  1  0     0  0
  9 13  1  0     0  0
  9 15  1  0     0  0
 10 14  1  0     0  0
 11 17  2  0     0  0
 11 18  1  0     0  0
 12 16  1  0     0  0
 14 16  2  0     0  0
 15 19  2  0     0  0
 15 20  1  0     0  0
 16 21  1  0     0  0
 17 19  1  0     0  0
 18 20  2  0     0  0
 22 23  1  0     0  0
 23 24  1  0     0  0
 23 25  1  0     0  0
 24 26  1  0     0  0
 25 27  1  0     0  0
 26 28  1  0     0  0
 27 28  1  0     0  0
M  END
> <Compound >
3

> <standard_type>
pIC50

> <# Confs.>
25

> <canonical_smiles>
NC1=C(C([H])=O)C(OCC2CCCCC2)=NC(NC3=CC=C(S(=O)(N)=O)C=C3)=N1

> <standard_relation>
=

> <predicted_activity_value>
7.346787486224656

> <actual_activity_value>
7.309803919971486

> <Publication ID>
nan

> <standard_units>
nM

> hash
9676751364705744828

$$$$
3_
XXILIB    08252103513D 0   0.00000     0.00000

 28 30  0     1  0            999 V2000
   -8.4675    0.0346    3.7697 S   0  0  2  0  0  6           0  0  0
   -9.2038    0.1975    2.5314 O   0  0  0  0  0  2           0  0  0
   -8.6951   -1.1128    4.6260 O   0  0  0  0  0  2           0  0  0
    1.3875    0.0000    0.0000 O   0  0  0  0  0  2           0  0  0
   -0.4388   -0.4655   -3.4907 O   0  0  0  0  0  2           0  0  0
   -0.6488   -0.0000    1.1871 N   0  0  0  0  0  3           0  0  0
   -2.7121    0.0362    0.0156 N   0  0  0  0  0  3           0  0  0
   -8.5987    1.4613    4.6934 N   0  0  0  0  0  3           0  0  0
   -2.6608    0.0361    2.3983 N   0  0  0  0  0  3           0  0  0
   -2.8354    0.0416   -2.3260 N   0  0  0  0  0  3           0  0  0
   -6.7486    0.0693    3.3748 C   0  0  0  0  0  4           0  0  0
    0.0000    0.0000    0.0000 C   0  0  0  0  0  4           0  0  0
   -1.9967    0.0232    1.1647 C   0  0  0  0  0  4           0  0  0
   -2.0563    0.0131   -1.1720 C   0  0  0  0  0  4           0  0  0
   -4.0247    0.0600    2.6994 C   0  0  0  0  0  4           0  0  0
   -0.6637    0.0163   -1.2212 C   0  0  0  0  0  4           0  0  0
   -5.8321   -0.5446    4.2239 C   0  0  0  0  0  4           0  0  0
   -6.3294    0.6718    2.1913 C   0  0  0  0  0  4           0  0  0
   -4.4774   -0.5437    3.8845 C   0  0  0  0  0  4           0  0  0
   -4.9717    0.6687    1.8607 C   0  0  0  0  0  4           0  0  0
    0.0493    0.0480   -2.4932 C   0  0  0  0  0  4           0  0  0
    1.9716    0.0000    1.3024 C   0  0  0  0  0  4           0  0  0
    3.4946   -0.0000    1.1835 C   0  0  2  0  0  4           0  0  0
    4.1676   -0.0000    2.5658 C   0  0  0  0  0  4           0  0  0
    3.9934    1.1908    0.3490 C   0  0  0  0  0  4           0  0  0
    5.6906    0.0029    2.4489 C   0  0  0  0  0  4           0  0  0
    5.5162    1.1947    0.2297 C   0  0  0  0  0  4           0  0  0
    6.1889    1.1673    1.5987 C   0  0  0  0  0  4           0  0  0
  1  2  2  0     0  0
  1  3  2  0     0  0
  1  8  1  0     0  0
  1 11  1  0     0  0
  4 12  1  0     0  0
  4 22  1  0     0  0
  5 21  2  0     0  0
  6 12  2  0     0  0
  6 13  1  0     0  0
  7 13  2  0     0  0
  7 14  1  0     0  0
  9 13  1  0     0  0
  9 15  1  0     0  0
 10 14  1  0     0  0
 11 17  2  0     0  0
 11 18  1  0     0  0
 12 16  1  0     0  0
 14 16  2  0     0  0
 15 19  2  0     0  0
 15 20  1  0     0  0
 16 21  1  0     0  0
 17 19  1  0     0  0
 18 20  2  0     0  0
 22 23  1  0     0  0
 23 24  1  0     0  0
 23 25  1  0     0  0
 24 26  1  0     0  0
 25 27  1  0     0  0
 26 28  1  0     0  0
 27 28  1  0     0  0
M  END
> <Compound >
3

> <standard_type>
pIC50

> <# Confs.>
25

> <canonical_smiles>
NC1=C(C([H])=O)C(OCC2CCCCC2)=NC(NC3=CC=C(S(=O)(N)=O)C=C3)=N1

> <standard_relation>
=

> <predicted_activity_value>
7.346787486224656

> <actual_activity_value>
7.309803919971486

> <Publication ID>
nan

> <standard_units>
nM

> hash
9676751364705744828

$$$$
3_
XXILIB    08252103513D 0   0.00000     0.00000

 28 30  0     1  0            999 V2000
   -0.6524   -0.0163    8.0164 S   0  0  2  0  0  6           0  0  0
   -1.3125   -1.1038    8.7117 O   0  0  0  0  0  2           0  0  0
    0.7939    0.0765    7.9816 O   0  0  0  0  0  2           0  0  0
    1.3875    0.0000    0.0000 O   0  0  0  0  0  2           0  0  0
   -0.4388   -0.4655   -3.4907 O   0  0  0  0  0  2           0  0  0
   -0.6488    0.0000    1.1871 N   0  0  0  0  0  3           0  0  0
   -2.7121    0.0362    0.0156 N   0  0  0  0  0  3           0  0  0
   -1.2990    1.4676    8.5515 N   0  0  0  0  0  3           0  0  0
   -2.6608    0.0361    2.3983 N   0  0  0  0  0  3           0  0  0
   -2.8354    0.0416   -2.3260 N   0  0  0  0  0  3           0  0  0
   -1.2236   -0.0276    6.3474 C   0  0  0  0  0  4           0  0  0
    0.0000    0.0000    0.0000 C   0  0  0  0  0  4           0  0  0
   -1.9967    0.0232    1.1647 C   0  0  0  0  0  4           0  0  0
   -2.0563    0.0131   -1.1720 C   0  0  0  0  0  4           0  0  0
   -2.1612    0.0290    3.7029 C   0  0  0  0  0  4           0  0  0
   -0.6637    0.0163   -1.2212 C   0  0  0  0  0  4           0  0  0
   -2.4565   -0.5978    6.0430 C   0  0  0  0  0  4           0  0  0
   -0.4547    0.5765    5.3558 C   0  0  0  0  0  4           0  0  0
   -2.9170   -0.5695    4.7248 C   0  0  0  0  0  4           0  0  0
   -0.9232    0.5989    4.0395 C   0  0  0  0  0  4           0  0  0
    0.0493    0.0480   -2.4932 C   0  0  0  0  0  4           0  0  0
    1.9716    0.0000    1.3024 C   0  0  0  0  0  4           0  0  0
    3.4946   -0.0000    1.1835 C   0  0  2  0  0  4           0  0  0
    4.1676   -0.0000    2.5658 C   0  0  0  0  0  4           0  0  0
    3.9934    1.1908    0.3490 C   0  0  0  0  0  4           0  0  0
    5.6906    0.0029    2.4489 C   0  0  0  0  0  4           0  0  0
    5.5162    1.1947    0.2297 C   0  0  0  0  0  4           0  0  0
    6.1889    1.1673    1.5987 C   0  0  0  0  0  4           0  0  0
  1  2  2  0     0  0
  1  3  2  0     0  0
  1  8  1  0     0  0
  1 11  1  0     0  0
  4 12  1  0     0  0
  4 22  1  0     0  0
  5 21  2  0     0  0
  6 12  2  0     0  0
  6 13  1  0     0  0
  7 13  2  0     0  0
  7 14  1  0     0  0
  9 13  1  0     0  0
  9 15  1  0     0  0
 10 14  1  0     0  0
 11 17  2  0     0  0
 11 18  1  0     0  0
 12 16  1  0     0  0
 14 16  2  0     0  0
 15 19  2  0     0  0
 15 20  1  0     0  0
 16 21  1  0     0  0
 17 19  1  0     0  0
 18 20  2  0     0  0
 22 23  1  0     0  0
 23 24  1  0     0  0
 23 25  1  0     0  0
 24 26  1  0     0  0
 25 27  1  0     0  0
 26 28  1  0     0  0
 27 28  1  0     0  0
M  END
> <Compound >
3

> <standard_type>
pIC50

> <# Confs.>
25

> <canonical_smiles>
NC1=C(C([H])=O)C(OCC2CCCCC2)=NC(NC3=CC=C(S(=O)(N)=O)C=C3)=N1

> <standard_relation>
=

> <predicted_activity_value>
7.346787486224656

> <actual_activity_value>
7.309803919971486

> <Publication ID>
nan

> <standard_units>
nM

> hash
9676751364705744828

$$$$
3_
XXILIB    08252103513D 0   0.00000     0.00000

 28 30  0     1  0            999 V2000
   -0.6078    0.1106    7.9999 S   0  0  2  0  0  6           0  0  0
   -1.7395    0.3150    8.8829 O   0  0  0  0  0  2           0  0  0
    0.2768   -1.0247    8.1737 O   0  0  0  0  0  2           0  0  0
    1.3875    0.0000    0.0000 O   0  0  0  0  0  2           0  0  0
   -0.4388   -0.4655   -3.4907 O   0  0  0  0  0  2           0  0  0
   -0.6488    0.0000    1.1871 N   0  0  0  0  0  3           0  0  0
   -2.7121    0.0362    0.0156 N   0  0  0  0  0  3           0  0  0
    0.3180    1.5405    7.9326 N   0  0  0  0  0  3           0  0  0
   -2.6608    0.0361    2.3983 N   0  0  0  0  0  3           0  0  0
   -2.8354    0.0416   -2.3260 N   0  0  0  0  0  3           0  0  0
   -1.2251    0.0544    6.3484 C   0  0  0  0  0  4           0  0  0
    0.0000    0.0000    0.0000 C   0  0  0  0  0  4           0  0  0
   -1.9967    0.0232    1.1647 C   0  0  0  0  0  4           0  0  0
   -2.0563    0.0131   -1.1720 C   0  0  0  0  0  4           0  0  0
   -2.1612    0.0290    3.7029 C   0  0  0  0  0  4           0  0  0
   -0.6637    0.0163   -1.2212 C   0  0  0  0  0  4           0  0  0
   -2.4331    0.6740    6.0409 C   0  0  0  0  0  4           0  0  0
   -0.4733   -0.5709    5.3567 C   0  0  0  0  0  4           0  0  0
   -2.8958    0.6557    4.7233 C   0  0  0  0  0  4           0  0  0
   -0.9450   -0.5849    4.0414 C   0  0  0  0  0  4           0  0  0
    0.0493    0.0480   -2.4932 C   0  0  0  0  0  4           0  0  0
    1.9716    0.0000    1.3024 C   0  0  0  0  0  4           0  0  0
    3.4946   -0.0000    1.1835 C   0  0  2  0  0  4           0  0  0
    4.1676   -0.0000    2.5658 C   0  0  0  0  0  4           0  0  0
    3.9934    1.1908    0.3490 C   0  0  0  0  0  4           0  0  0
    5.6906    0.0029    2.4489 C   0  0  0  0  0  4           0  0  0
    5.5162    1.1947    0.2297 C   0  0  0  0  0  4           0  0  0
    6.1889    1.1673    1.5987 C   0  0  0  0  0  4           0  0  0
  1  2  2  0     0  0
  1  3  2  0     0  0
  1  8  1  0     0  0
  1 11  1  0     0  0
  4 12  1  0     0  0
  4 22  1  0     0  0
  5 21  2  0     0  0
  6 12  2  0     0  0
  6 13  1  0     0  0
  7 13  2  0     0  0
  7 14  1  0     0  0
  9 13  1  0     0  0
  9 15  1  0     0  0
 10 14  1  0     0  0
 11 17  2  0     0  0
 11 18  1  0     0  0
 12 16  1  0     0  0
 14 16  2  0     0  0
 15 19  2  0     0  0
 15 20  1  0     0  0
 16 21  1  0     0  0
 17 19  1  0     0  0
 18 20  2  0     0  0
 22 23  1  0     0  0
 23 24  1  0     0  0
 23 25  1  0     0  0
 24 26  1  0     0  0
 25 27  1  0     0  0
 26 28  1  0     0  0
 27 28  1  0     0  0
M  END
> <Compound >
3

> <standard_type>
pIC50

> <# Confs.>
25

> <canonical_smiles>
NC1=C(C([H])=O)C(OCC2CCCCC2)=NC(NC3=CC=C(S(=O)(N)=O)C=C3)=N1

> <standard_relation>
=

> <predicted_activity_value>
7.346787486224656

> <actual_activity_value>
7.309803919971486

> <Publication ID>
nan

> <standard_units>
nM

> hash
9676751364705744828

$$$$
3_
XXILIB    08252103513D 0   0.00000     0.00000

 28 30  0     1  0            999 V2000
   -8.4555    0.1621    3.8139 S   0  0  2  0  0  6           0  0  0
   -8.6629    1.2665    4.7301 O   0  0  0  0  0  2           0  0  0
   -9.2238    0.0561    2.5891 O   0  0  0  0  0  2           0  0  0
    1.3875    0.0000    0.0000 O   0  0  0  0  0  2           0  0  0
   -0.4388   -0.4655   -3.4907 O   0  0  0  0  0  2           0  0  0
   -0.6488   -0.0000    1.1871 N   0  0  0  0  0  3           0  0  0
   -2.7121    0.0362    0.0156 N   0  0  0  0  0  3           0  0  0
   -8.5591   -1.3072    4.6723 N   0  0  0  0  0  3           0  0  0
   -2.6608    0.0361    2.3983 N   0  0  0  0  0  3           0  0  0
   -2.8354    0.0416   -2.3260 N   0  0  0  0  0  3           0  0  0
   -6.7478    0.1513    3.3717 C   0  0  0  0  0  4           0  0  0
    0.0000    0.0000    0.0000 C   0  0  0  0  0  4           0  0  0
   -1.9967    0.0232    1.1647 C   0  0  0  0  0  4           0  0  0
   -2.0563    0.0131   -1.1720 C   0  0  0  0  0  4           0  0  0
   -4.0247    0.0600    2.6994 C   0  0  0  0  0  4           0  0  0
   -0.6637    0.0163   -1.2212 C   0  0  0  0  0  4           0  0  0
   -5.8099    0.7272    4.2240 C   0  0  0  0  0  4           0  0  0
   -6.3489   -0.4755    2.1938 C   0  0  0  0  0  4           0  0  0
   -4.4563    0.6816    3.8831 C   0  0  0  0  0  4           0  0  0
   -4.9924   -0.5151    1.8606 C   0  0  0  0  0  4           0  0  0
    0.0493    0.0480   -2.4932 C   0  0  0  0  0  4           0  0  0
    1.9716    0.0000    1.3024 C   0  0  0  0  0  4           0  0  0
    3.4946   -0.0000    1.1835 C   0  0  2  0  0  4           0  0  0
    4.1676   -0.0000    2.5658 C   0  0  0  0  0  4           0  0  0
    3.9934    1.1908    0.3490 C   0  0  0  0  0  4           0  0  0
    5.6906    0.0029    2.4489 C   0  0  0  0  0  4           0  0  0
    5.5162    1.1947    0.2297 C   0  0  0  0  0  4           0  0  0
    6.1889    1.1673    1.5987 C   0  0  0  0  0  4           0  0  0
  1  2  2  0     0  0
  1  3  2  0     0  0
  1  8  1  0     0  0
  1 11  1  0     0  0
  4 12  1  0     0  0
  4 22  1  0     0  0
  5 21  2  0     0  0
  6 12  2  0     0  0
  6 13  1  0     0  0
  7 13  2  0     0  0
  7 14  1  0     0  0
  9 13  1  0     0  0
  9 15  1  0     0  0
 10 14  1  0     0  0
 11 17  2  0     0  0
 11 18  1  0     0  0
 12 16  1  0     0  0
 14 16  2  0     0  0
 15 19  2  0     0  0
 15 20  1  0     0  0
 16 21  1  0     0  0
 17 19  1  0     0  0
 18 20  2  0     0  0
 22 23  1  0     0  0
 23 24  1  0     0  0
 23 25  1  0     0  0
 24 26  1  0     0  0
 25 27  1  0     0  0
 26 28  1  0     0  0
 27 28  1  0     0  0
M  END
> <Compound >
3

> <standard_type>
pIC50

> <# Confs.>
25

> <canonical_smiles>
NC1=C(C([H])=O)C(OCC2CCCCC2)=NC(NC3=CC=C(S(=O)(N)=O)C=C3)=N1

> <standard_relation>
=

> <predicted_activity_value>
7.346787486224656

> <actual_activity_value>
7.309803919971486

> <Publication ID>
nan

> <standard_units>
nM

> hash
9676751364705744828

$$$$
3_
XXILIB    08252103513D 0   0.00000     0.00000

 28 30  0     1  0            999 V2000
   -0.6524   -0.0163    8.0164 S   0  0  2  0  0  6           0  0  0
   -1.3125   -1.1038    8.7117 O   0  0  0  0  0  2           0  0  0
    0.7939    0.0765    7.9816 O   0  0  0  0  0  2           0  0  0
    1.3875    0.0000    0.0000 O   0  0  0  0  0  2           0  0  0
   -0.4388   -0.4655   -3.4907 O   0  0  0  0  0  2           0  0  0
   -0.6488    0.0000    1.1871 N   0  0  0  0  0  3           0  0  0
   -2.7121    0.0362    0.0156 N   0  0  0  0  0  3           0  0  0
   -1.2990    1.4676    8.5515 N   0  0  0  0  0  3           0  0  0
   -2.6608    0.0361    2.3983 N   0  0  0  0  0  3           0  0  0
   -2.8354    0.0416   -2.3260 N   0  0  0  0  0  3           0  0  0
   -1.2236   -0.0276    6.3474 C   0  0  0  0  0  4           0  0  0
    0.0000    0.0000    0.0000 C   0  0  0  0  0  4           0  0  0
   -1.9967    0.0232    1.1647 C   0  0  0  0  0  4           0  0  0
   -2.0563    0.0131   -1.1720 C   0  0  0  0  0  4           0  0  0
   -2.1612    0.0290    3.7029 C   0  0  0  0  0  4           0  0  0
   -0.6637    0.0163   -1.2212 C   0  0  0  0  0  4           0  0  0
   -2.4565   -0.5978    6.0430 C   0  0  0  0  0  4           0  0  0
   -0.4547    0.5765    5.3558 C   0  0  0  0  0  4           0  0  0
   -2.9170   -0.5695    4.7248 C   0  0  0  0  0  4           0  0  0
   -0.9232    0.5989    4.0395 C   0  0  0  0  0  4           0  0  0
    0.0493    0.0480   -2.4932 C   0  0  0  0  0  4           0  0  0
    1.9716    0.0000    1.3024 C   0  0  0  0  0  4           0  0  0
    3.4946   -0.0000    1.1835 C   0  0  2  0  0  4           0  0  0
    4.0006    1.2388    0.4266 C   0  0  0  0  0  4           0  0  0
    4.0058   -1.2823    0.5070 C   0  0  0  0  0  4           0  0  0
    5.5231    1.2391    0.3042 C   0  0  0  0  0  4           0  0  0
    5.5283   -1.2846    0.3850 C   0  0  0  0  0  4           0  0  0
    6.0374   -0.0436   -0.3418 C   0  0  0  0  0  4           0  0  0
  1  2  2  0     0  0
  1  3  2  0     0  0
  1  8  1  0     0  0
  1 11  1  0     0  0
  4 12  1  0     0  0
  4 22  1  0     0  0
  5 21  2  0     0  0
  6 12  2  0     0  0
  6 13  1  0     0  0
  7 13  2  0     0  0
  7 14  1  0     0  0
  9 13  1  0     0  0
  9 15  1  0     0  0
 10 14  1  0     0  0
 11 17  2  0     0  0
 11 18  1  0     0  0
 12 16  1  0     0  0
 14 16  2  0     0  0
 15 19  2  0     0  0
 15 20  1  0     0  0
 16 21  1  0     0  0
 17 19  1  0     0  0
 18 20  2  0     0  0
 22 23  1  0     0  0
 23 24  1  0     0  0
 23 25  1  0     0  0
 24 26  1  0     0  0
 25 27  1  0     0  0
 26 28  1  0     0  0
 27 28  1  0     0  0
M  END
> <Compound >
3

> <standard_type>
pIC50

> <# Confs.>
25

> <canonical_smiles>
NC1=C(C([H])=O)C(OCC2CCCCC2)=NC(NC3=CC=C(S(=O)(N)=O)C=C3)=N1

> <standard_relation>
=

> <predicted_activity_value>
7.346787486224656

> <actual_activity_value>
7.309803919971486

> <Publication ID>
nan

> <standard_units>
nM

> hash
9676751364705744828

$$$$
3_
XXILIB    08252103513D 0   0.00000     0.00000

 28 30  0     1  0            999 V2000
   -0.6078    0.1106    7.9999 S   0  0  2  0  0  6           0  0  0
   -1.7395    0.3150    8.8829 O   0  0  0  0  0  2           0  0  0
    0.2768   -1.0247    8.1737 O   0  0  0  0  0  2           0  0  0
    1.3875    0.0000    0.0000 O   0  0  0  0  0  2           0  0  0
   -0.4388   -0.4655   -3.4907 O   0  0  0  0  0  2           0  0  0
   -0.6488    0.0000    1.1871 N   0  0  0  0  0  3           0  0  0
   -2.7121    0.0362    0.0156 N   0  0  0  0  0  3           0  0  0
    0.3180    1.5405    7.9326 N   0  0  0  0  0  3           0  0  0
   -2.6608    0.0361    2.3983 N   0  0  0  0  0  3           0  0  0
   -2.8354    0.0416   -2.3260 N   0  0  0  0  0  3           0  0  0
   -1.2251    0.0544    6.3484 C   0  0  0  0  0  4           0  0  0
    0.0000    0.0000    0.0000 C   0  0  0  0  0  4           0  0  0
   -1.9967    0.0232    1.1647 C   0  0  0  0  0  4           0  0  0
   -2.0563    0.0131   -1.1720 C   0  0  0  0  0  4           0  0  0
   -2.1612    0.0290    3.7029 C   0  0  0  0  0  4           0  0  0
   -0.6637    0.0163   -1.2212 C   0  0  0  0  0  4           0  0  0
   -2.4331    0.6740    6.0409 C   0  0  0  0  0  4           0  0  0
   -0.4733   -0.5709    5.3567 C   0  0  0  0  0  4           0  0  0
   -2.8958    0.6557    4.7233 C   0  0  0  0  0  4           0  0  0
   -0.9450   -0.5849    4.0414 C   0  0  0  0  0  4           0  0  0
    0.0493    0.0480   -2.4932 C   0  0  0  0  0  4           0  0  0
    1.9716    0.0000    1.3024 C   0  0  0  0  0  4           0  0  0
    3.4946   -0.0000    1.1835 C   0  0  2  0  0  4           0  0  0
    4.0006    1.2388    0.4266 C   0  0  0  0  0  4           0  0  0
    4.0058   -1.2823    0.5070 C   0  0  0  0  0  4           0  0  0
    5.5231    1.2391    0.3042 C   0  0  0  0  0  4           0  0  0
    5.5283   -1.2846    0.3850 C   0  0  0  0  0  4           0  0  0
    6.0374   -0.0436   -0.3418 C   0  0  0  0  0  4           0  0  0
  1  2  2  0     0  0
  1  3  2  0     0  0
  1  8  1  0     0  0
  1 11  1  0     0  0
  4 12  1  0     0  0
  4 22  1  0     0  0
  5 21  2  0     0  0
  6 12  2  0     0  0
  6 13  1  0     0  0
  7 13  2  0     0  0
  7 14  1  0     0  0
  9 13  1  0     0  0
  9 15  1  0     0  0
 10 14  1  0     0  0
 11 17  2  0     0  0
 11 18  1  0     0  0
 12 16  1  0     0  0
 14 16  2  0     0  0
 15 19  2  0     0  0
 15 20  1  0     0  0
 16 21  1  0     0  0
 17 19  1  0     0  0
 18 20  2  0     0  0
 22 23  1  0     0  0
 23 24  1  0     0  0
 23 25  1  0     0  0
 24 26  1  0     0  0
 25 27  1  0     0  0
 26 28  1  0     0  0
 27 28  1  0     0  0
M  END
> <Compound >
3

> <standard_type>
pIC50

> <# Confs.>
25

> <canonical_smiles>
NC1=C(C([H])=O)C(OCC2CCCCC2)=NC(NC3=CC=C(S(=O)(N)=O)C=C3)=N1

> <standard_relation>
=

> <predicted_activity_value>
7.346787486224656

> <actual_activity_value>
7.309803919971486

> <Publication ID>
nan

> <standard_units>
nM

> hash
9676751364705744828

$$$$
3_
XXILIB    08252103513D 0   0.00000     0.00000

 28 30  0     1  0            999 V2000
   -0.6078    0.1106    7.9999 S   0  0  2  0  0  6           0  0  0
    0.8298   -0.0659    7.9355 O   0  0  0  0  0  2           0  0  0
   -1.1872    1.2736    8.6427 O   0  0  0  0  0  2           0  0  0
    1.3875    0.0000    0.0000 O   0  0  0  0  0  2           0  0  0
   -0.4388   -0.4655   -3.4907 O   0  0  0  0  0  2           0  0  0
   -0.6488    0.0000    1.1871 N   0  0  0  0  0  3           0  0  0
   -2.7121    0.0362    0.0156 N   0  0  0  0  0  3           0  0  0
   -1.3190   -1.2998    8.6411 N   0  0  0  0  0  3           0  0  0
   -2.6608    0.0361    2.3983 N   0  0  0  0  0  3           0  0  0
   -2.8354    0.0416   -2.3260 N   0  0  0  0  0  3           0  0  0
   -1.2251    0.0544    6.3484 C   0  0  0  0  0  4           0  0  0
    0.0000    0.0000    0.0000 C   0  0  0  0  0  4           0  0  0
   -1.9967    0.0232    1.1647 C   0  0  0  0  0  4           0  0  0
   -2.0563    0.0131   -1.1720 C   0  0  0  0  0  4           0  0  0
   -2.1612    0.0290    3.7029 C   0  0  0  0  0  4           0  0  0
   -0.6637    0.0163   -1.2212 C   0  0  0  0  0  4           0  0  0
   -2.4331    0.6740    6.0409 C   0  0  0  0  0  4           0  0  0
   -0.4733   -0.5709    5.3567 C   0  0  0  0  0  4           0  0  0
   -2.8958    0.6557    4.7233 C   0  0  0  0  0  4           0  0  0
   -0.9450   -0.5849    4.0414 C   0  0  0  0  0  4           0  0  0
    0.0493    0.0480   -2.4932 C   0  0  0  0  0  4           0  0  0
    1.9716    0.0000    1.3024 C   0  0  0  0  0  4           0  0  0
    3.4946   -0.0000    1.1835 C   0  0  2  0  0  4           0  0  0
    4.0270   -1.2312    0.4290 C   0  0  0  0  0  4           0  0  0
    4.1627    0.1143    2.5616 C   0  0  0  0  0  4           0  0  0
    3.9304   -2.5192    1.2453 C   0  0  0  0  0  4           0  0  0
    4.0603   -1.1714    3.3807 C   0  0  0  0  0  4           0  0  0
    4.5975   -2.3733    2.6097 C   0  0  0  0  0  4           0  0  0
  1  2  2  0     0  0
  1  3  2  0     0  0
  1  8  1  0     0  0
  1 11  1  0     0  0
  4 12  1  0     0  0
  4 22  1  0     0  0
  5 21  2  0     0  0
  6 12  2  0     0  0
  6 13  1  0     0  0
  7 13  2  0     0  0
  7 14  1  0     0  0
  9 13  1  0     0  0
  9 15  1  0     0  0
 10 14  1  0     0  0
 11 17  2  0     0  0
 11 18  1  0     0  0
 12 16  1  0     0  0
 14 16  2  0     0  0
 15 19  2  0     0  0
 15 20  1  0     0  0
 16 21  1  0     0  0
 17 19  1  0     0  0
 18 20  2  0     0  0
 22 23  1  0     0  0
 23 24  1  0     0  0
 23 25  1  0     0  0
 24 26  1  0     0  0
 25 27  1  0     0  0
 26 28  1  0     0  0
 27 28  1  0     0  0
M  END
> <Compound >
3

> <standard_type>
pIC50

> <# Confs.>
25

> <canonical_smiles>
NC1=C(C([H])=O)C(OCC2CCCCC2)=NC(NC3=CC=C(S(=O)(N)=O)C=C3)=N1

> <standard_relation>
=

> <predicted_activity_value>
7.346787486224656

> <actual_activity_value>
7.309803919971486

> <Publication ID>
nan

> <standard_units>
nM

> hash
9676751364705744828

$$$$
15_
XXILIB    08252103513D 0   0.00000     0.00000

 18 19  0     1  0            999 V2000
    0.0000    0.0000   -0.0000 O   0  0  0  0  0  2           0  0  0
    2.0513    0.0000    1.1767 N   0  0  0  0  0  3           0  0  0
    4.0977    0.0128   -0.0369 N   0  0  0  0  0  3           0  0  0
    4.1056    0.0199    2.3133 N   0  0  0  0  0  3           0  0  0
    4.1535    0.0359   -2.3920 N   0  0  0  0  0  3           0  0  0
    0.6836    0.0300   -3.4425 N   0  0  0  0  0  3           0  0  0
    1.3858   -0.0000    0.0000 C   0  0  0  0  0  4           0  0  0
    3.3990    0.0093    1.1215 C   0  0  0  0  0  4           0  0  0
    3.4166   -0.0054   -1.2097 C   0  0  0  0  0  4           0  0  0
    2.0251    0.0041   -1.2316 C   0  0  0  0  0  4           0  0  0
   -0.5860   -0.0000    1.3018 C   0  0  0  0  0  4           0  0  0
    1.2847    0.0188   -2.4496 C   0  0  0  0  0  4           0  0  0
   -2.1044   -0.0000    1.1524 C   0  0  1  0  0  4           0  0  0
   -2.5924   -1.2405    0.3848 C   0  0  0  0  0  4           0  0  0
   -2.7771    0.0881    2.5290 C   0  0  0  0  0  4           0  0  0
   -4.1158   -1.2815    0.2840 C   0  0  0  0  0  4           0  0  0
   -4.2993    0.0467    2.4210 C   0  0  0  0  0  4           0  0  0
   -4.7753   -1.1836    1.6557 C   0  0  0  0  0  4           0  0  0
  1  7  1  0     0  0
  1 11  1  0     0  0
  2  7  2  0     0  0
  2  8  1  0     0  0
  3  8  2  0     0  0
  3  9  1  0     0  0
  4  8  1  0     0  0
  5  9  1  0     0  0
  6 12  3  0     0  0
  7 10  1  0     0  0
  9 10  2  0     0  0
 10 12  1  0     0  0
 11 13  1  0     0  0
 13 14  1  0     0  0
 13 15  1  0     0  0
 14 16  1  0     0  0
 15 17  1  0     0  0
 16 18  1  0     0  0
 17 18  1  0     0  0
M  END
> <Compound >
15

> <standard_type>
pIC50

> <# Confs.>
25

> <canonical_smiles>
NC1=NC(N)=C(C#N)C(OCC2CCCCC2)=N1

> <standard_relation>
=

> <predicted_activity_value>
4.536139845515075

> <actual_activity_value>
4.214670164989233

> <Publication ID>
nan

> <standard_units>
nM

> hash
17811700771754468510

$$$$
15_
XXILIB    08252103513D 0   0.00000     0.00000

 18 19  0     1  0            999 V2000
    0.0000    0.0000   -0.0000 O   0  0  0  0  0  2           0  0  0
    2.0513    0.0000    1.1767 N   0  0  0  0  0  3           0  0  0
    4.0977    0.0128   -0.0369 N   0  0  0  0  0  3           0  0  0
    4.1056    0.0199    2.3133 N   0  0  0  0  0  3           0  0  0
    4.1535    0.0359   -2.3920 N   0  0  0  0  0  3           0  0  0
    0.6836    0.0300   -3.4425 N   0  0  0  0  0  3           0  0  0
    1.3858   -0.0000    0.0000 C   0  0  0  0  0  4           0  0  0
    3.3990    0.0093    1.1215 C   0  0  0  0  0  4           0  0  0
    3.4166   -0.0054   -1.2097 C   0  0  0  0  0  4           0  0  0
    2.0251    0.0041   -1.2316 C   0  0  0  0  0  4           0  0  0
   -0.5860   -0.0000    1.3018 C   0  0  0  0  0  4           0  0  0
    1.2847    0.0188   -2.4496 C   0  0  0  0  0  4           0  0  0
   -2.1044   -0.0000    1.1524 C   0  0  1  0  0  4           0  0  0
   -2.8027   -0.0000    2.5231 C   0  0  0  0  0  4           0  0  0
   -2.5588    1.1994    0.3097 C   0  0  0  0  0  4           0  0  0
   -4.3225    0.0628    2.3847 C   0  0  0  0  0  4           0  0  0
   -4.0785    1.2560    0.1754 C   0  0  0  0  0  4           0  0  0
   -4.7637    1.2519    1.5378 C   0  0  0  0  0  4           0  0  0
  1  7  1  0     0  0
  1 11  1  0     0  0
  2  7  2  0     0  0
  2  8  1  0     0  0
  3  8  2  0     0  0
  3  9  1  0     0  0
  4  8  1  0     0  0
  5  9  1  0     0  0
  6 12  3  0     0  0
  7 10  1  0     0  0
  9 10  2  0     0  0
 10 12  1  0     0  0
 11 13  1  0     0  0
 13 14  1  0     0  0
 13 15  1  0     0  0
 14 16  1  0     0  0
 15 17  1  0     0  0
 16 18  1  0     0  0
 17 18  1  0     0  0
M  END
> <Compound >
15

> <standard_type>
pIC50

> <# Confs.>
25

> <canonical_smiles>
NC1=NC(N)=C(C#N)C(OCC2CCCCC2)=N1

> <standard_relation>
=

> <predicted_activity_value>
4.536139845515075

> <actual_activity_value>
4.214670164989233

> <Publication ID>
nan

> <standard_units>
nM

> hash
17811700771754468510

$$$$
15_
XXILIB    08252103513D 0   0.00000     0.00000

 18 19  0     1  0            999 V2000
    0.0000    0.0000   -0.0000 O   0  0  0  0  0  2           0  0  0
    2.0513    0.0000    1.1767 N   0  0  0  0  0  3           0  0  0
    4.0977    0.0128   -0.0369 N   0  0  0  0  0  3           0  0  0
    4.1056    0.0199    2.3133 N   0  0  0  0  0  3           0  0  0
    4.1535    0.0359   -2.3920 N   0  0  0  0  0  3           0  0  0
    0.6836    0.0300   -3.4425 N   0  0  0  0  0  3           0  0  0
    1.3858   -0.0000    0.0000 C   0  0  0  0  0  4           0  0  0
    3.3990    0.0093    1.1215 C   0  0  0  0  0  4           0  0  0
    3.4166   -0.0054   -1.2097 C   0  0  0  0  0  4           0  0  0
    2.0251    0.0041   -1.2316 C   0  0  0  0  0  4           0  0  0
   -0.5860   -0.0000    1.3018 C   0  0  0  0  0  4           0  0  0
    1.2847    0.0188   -2.4496 C   0  0  0  0  0  4           0  0  0
   -2.1044   -0.0000    1.1524 C   0  0  1  0  0  4           0  0  0
   -2.5924    1.2405    0.3848 C   0  0  0  0  0  4           0  0  0
   -2.5738   -1.2875    0.4615 C   0  0  0  0  0  4           0  0  0
   -4.1052    1.2187    0.1757 C   0  0  0  0  0  4           0  0  0
   -4.0864   -1.3027    0.2559 C   0  0  0  0  0  4           0  0  0
   -4.5630   -0.0684   -0.5023 C   0  0  0  0  0  4           0  0  0
  1  7  1  0     0  0
  1 11  1  0     0  0
  2  7  2  0     0  0
  2  8  1  0     0  0
  3  8  2  0     0  0
  3  9  1  0     0  0
  4  8  1  0     0  0
  5  9  1  0     0  0
  6 12  3  0     0  0
  7 10  1  0     0  0
  9 10  2  0     0  0
 10 12  1  0     0  0
 11 13  1  0     0  0
 13 14  1  0     0  0
 13 15  1  0     0  0
 14 16  1  0     0  0
 15 17  1  0     0  0
 16 18  1  0     0  0
 17 18  1  0     0  0
M  END
> <Compound >
15

> <standard_type>
pIC50

> <# Confs.>
25

> <canonical_smiles>
NC1=NC(N)=C(C#N)C(OCC2CCCCC2)=N1

> <standard_relation>
=

> <predicted_activity_value>
4.536139845515075

> <actual_activity_value>
4.214670164989233

> <Publication ID>
nan

> <standard_units>
nM

> hash
17811700771754468510

$$$$
15_
XXILIB    08252103513D 0   0.00000     0.00000

 18 19  0     1  0            999 V2000
    0.0000    0.0000   -0.0000 O   0  0  0  0  0  2           0  0  0
    2.0513    0.0000    1.1767 N   0  0  0  0  0  3           0  0  0
    4.0977    0.0128   -0.0369 N   0  0  0  0  0  3           0  0  0
    4.1056    0.0199    2.3133 N   0  0  0  0  0  3           0  0  0
    4.1535    0.0359   -2.3920 N   0  0  0  0  0  3           0  0  0
    0.6836    0.0300   -3.4425 N   0  0  0  0  0  3           0  0  0
    1.3858   -0.0000    0.0000 C   0  0  0  0  0  4           0  0  0
    3.3990    0.0093    1.1215 C   0  0  0  0  0  4           0  0  0
    3.4166   -0.0054   -1.2097 C   0  0  0  0  0  4           0  0  0
    2.0251    0.0041   -1.2316 C   0  0  0  0  0  4           0  0  0
   -0.5860   -0.0000    1.3018 C   0  0  0  0  0  4           0  0  0
    1.2847    0.0188   -2.4496 C   0  0  0  0  0  4           0  0  0
   -2.1044   -0.0000    1.1524 C   0  0  1  0  0  4           0  0  0
   -2.6204    1.2317    0.3872 C   0  0  0  0  0  4           0  0  0
   -2.8023   -0.1158    2.5158 C   0  0  0  0  0  4           0  0  0
   -2.5420    2.5187    1.2069 C   0  0  0  0  0  4           0  0  0
   -2.7183    1.1691    3.3379 C   0  0  0  0  0  4           0  0  0
   -3.2388    2.3710    2.5561 C   0  0  0  0  0  4           0  0  0
  1  7  1  0     0  0
  1 11  1  0     0  0
  2  7  2  0     0  0
  2  8  1  0     0  0
  3  8  2  0     0  0
  3  9  1  0     0  0
  4  8  1  0     0  0
  5  9  1  0     0  0
  6 12  3  0     0  0
  7 10  1  0     0  0
  9 10  2  0     0  0
 10 12  1  0     0  0
 11 13  1  0     0  0
 13 14  1  0     0  0
 13 15  1  0     0  0
 14 16  1  0     0  0
 15 17  1  0     0  0
 16 18  1  0     0  0
 17 18  1  0     0  0
M  END
> <Compound >
15

> <standard_type>
pIC50

> <# Confs.>
25

> <canonical_smiles>
NC1=NC(N)=C(C#N)C(OCC2CCCCC2)=N1

> <standard_relation>
=

> <predicted_activity_value>
4.536139845515075

> <actual_activity_value>
4.214670164989233

> <Publication ID>
nan

> <standard_units>
nM

> hash
17811700771754468510

$$$$
15_
XXILIB    08252103513D 0   0.00000     0.00000

 18 19  0     1  0            999 V2000
    0.0000    0.0000   -0.0000 O   0  0  0  0  0  2           0  0  0
    2.0513    0.0000    1.1767 N   0  0  0  0  0  3           0  0  0
    4.0977    0.0128   -0.0369 N   0  0  0  0  0  3           0  0  0
    4.1056    0.0199    2.3133 N   0  0  0  0  0  3           0  0  0
    4.1535    0.0359   -2.3920 N   0  0  0  0  0  3           0  0  0
    0.6836    0.0300   -3.4425 N   0  0  0  0  0  3           0  0  0
    1.3858   -0.0000    0.0000 C   0  0  0  0  0  4           0  0  0
    3.3990    0.0093    1.1215 C   0  0  0  0  0  4           0  0  0
    3.4166   -0.0054   -1.2097 C   0  0  0  0  0  4           0  0  0
    2.0251    0.0041   -1.2316 C   0  0  0  0  0  4           0  0  0
   -0.5860   -0.0000    1.3018 C   0  0  0  0  0  4           0  0  0
    1.2847    0.0188   -2.4496 C   0  0  0  0  0  4           0  0  0
   -2.1044   -0.0000    1.1524 C   0  0  1  0  0  4           0  0  0
   -2.8293   -0.0000    2.5102 C   0  0  0  0  0  4           0  0  0
   -2.5832   -1.1763    0.2886 C   0  0  0  0  0  4           0  0  0
   -2.7412   -1.3434    3.2328 C   0  0  0  0  0  4           0  0  0
   -2.4893   -2.5201    1.0090 C   0  0  0  0  0  4           0  0  0
   -3.2184   -2.4914    2.3485 C   0  0  0  0  0  4           0  0  0
  1  7  1  0     0  0
  1 11  1  0     0  0
  2  7  2  0     0  0
  2  8  1  0     0  0
  3  8  2  0     0  0
  3  9  1  0     0  0
  4  8  1  0     0  0
  5  9  1  0     0  0
  6 12  3  0     0  0
  7 10  1  0     0  0
  9 10  2  0     0  0
 10 12  1  0     0  0
 11 13  1  0     0  0
 13 14  1  0     0  0
 13 15  1  0     0  0
 14 16  1  0     0  0
 15 17  1  0     0  0
 16 18  1  0     0  0
 17 18  1  0     0  0
M  END
> <Compound >
15

> <standard_type>
pIC50

> <# Confs.>
25

> <canonical_smiles>
NC1=NC(N)=C(C#N)C(OCC2CCCCC2)=N1

> <standard_relation>
=

> <predicted_activity_value>
4.536139845515075

> <actual_activity_value>
4.214670164989233

> <Publication ID>
nan

> <standard_units>
nM

> hash
17811700771754468510

$$$$
15_
XXILIB    08252103513D 0   0.00000     0.00000

 18 19  0     1  0            999 V2000
    0.0000    0.0000    0.0000 O   0  0  0  0  0  2           0  0  0
    2.0513    0.0000    1.1767 N   0  0  0  0  0  3           0  0  0
    4.0977    0.0128   -0.0369 N   0  0  0  0  0  3           0  0  0
    4.1056    0.0199    2.3133 N   0  0  0  0  0  3           0  0  0
    4.1535    0.0359   -2.3920 N   0  0  0  0  0  3           0  0  0
    0.6836    0.0300   -3.4425 N   0  0  0  0  0  3           0  0  0
    1.3858   -0.0000    0.0000 C   0  0  0  0  0  4           0  0  0
    3.3990    0.0093    1.1215 C   0  0  0  0  0  4           0  0  0
    3.4166   -0.0054   -1.2097 C   0  0  0  0  0  4           0  0  0
    2.0251    0.0041   -1.2316 C   0  0  0  0  0  4           0  0  0
   -0.5860    0.0000    1.3018 C   0  0  0  0  0  4           0  0  0
    1.2847    0.0188   -2.4496 C   0  0  0  0  0  4           0  0  0
   -0.7860    1.4458    1.7459 C   0  0  1  0  0  4           0  0  0
   -1.7120    2.2060    0.7811 C   0  0  0  0  0  4           0  0  0
   -1.3343    1.4942    3.1786 C   0  0  0  0  0  4           0  0  0
   -1.9684    3.6365    1.2507 C   0  0  0  0  0  4           0  0  0
   -1.5881    2.9266    3.6415 C   0  0  0  0  0  4           0  0  0
   -2.5036    3.6748    2.6783 C   0  0  0  0  0  4           0  0  0
  1  7  1  0     0  0
  1 11  1  0     0  0
  2  7  2  0     0  0
  2  8  1  0     0  0
  3  8  2  0     0  0
  3  9  1  0     0  0
  4  8  1  0     0  0
  5  9  1  0     0  0
  6 12  3  0     0  0
  7 10  1  0     0  0
  9 10  2  0     0  0
 10 12  1  0     0  0
 11 13  1  0     0  0
 13 14  1  0     0  0
 13 15  1  0     0  0
 14 16  1  0     0  0
 15 17  1  0     0  0
 16 18  1  0     0  0
 17 18  1  0     0  0
M  END
> <Compound >
15

> <standard_type>
pIC50

> <# Confs.>
25

> <canonical_smiles>
NC1=NC(N)=C(C#N)C(OCC2CCCCC2)=N1

> <standard_relation>
=

> <predicted_activity_value>
4.536139845515075

> <actual_activity_value>
4.214670164989233

> <Publication ID>
nan

> <standard_units>
nM

> hash
17811700771754468510

$$$$
15_
XXILIB    08252103513D 0   0.00000     0.00000

 18 19  0     1  0            999 V2000
    0.0000    0.0000    0.0000 O   0  0  0  0  0  2           0  0  0
    2.0513    0.0000    1.1767 N   0  0  0  0  0  3           0  0  0
    4.0977    0.0128   -0.0369 N   0  0  0  0  0  3           0  0  0
    4.1056    0.0199    2.3133 N   0  0  0  0  0  3           0  0  0
    4.1535    0.0359   -2.3920 N   0  0  0  0  0  3           0  0  0
    0.6836    0.0300   -3.4425 N   0  0  0  0  0  3           0  0  0
    1.3858   -0.0000    0.0000 C   0  0  0  0  0  4           0  0  0
    3.3990    0.0093    1.1215 C   0  0  0  0  0  4           0  0  0
    3.4166   -0.0054   -1.2097 C   0  0  0  0  0  4           0  0  0
    2.0251    0.0041   -1.2316 C   0  0  0  0  0  4           0  0  0
   -0.5860    0.0000    1.3018 C   0  0  0  0  0  4           0  0  0
    1.2847    0.0188   -2.4496 C   0  0  0  0  0  4           0  0  0
   -0.7860   -1.4458    1.7459 C   0  0  1  0  0  4           0  0  0
   -1.4167   -1.5200    3.1470 C   0  0  0  0  0  4           0  0  0
   -1.6408   -2.2062    0.7229 C   0  0  0  0  0  4           0  0  0
   -1.6782   -2.9626    3.5751 C   0  0  0  0  0  4           0  0  0
   -1.8982   -3.6470    1.1569 C   0  0  0  0  0  4           0  0  0
   -2.5199   -3.7126    2.5479 C   0  0  0  0  0  4           0  0  0
  1  7  1  0     0  0
  1 11  1  0     0  0
  2  7  2  0     0  0
  2  8  1  0     0  0
  3  8  2  0     0  0
  3  9  1  0     0  0
  4  8  1  0     0  0
  5  9  1  0     0  0
  6 12  3  0     0  0
  7 10  1  0     0  0
  9 10  2  0     0  0
 10 12  1  0     0  0
 11 13  1  0     0  0
 13 14  1  0     0  0
 13 15  1  0     0  0
 14 16  1  0     0  0
 15 17  1  0     0  0
 16 18  1  0     0  0
 17 18  1  0     0  0
M  END
> <Compound >
15

> <standard_type>
pIC50

> <# Confs.>
25

> <canonical_smiles>
NC1=NC(N)=C(C#N)C(OCC2CCCCC2)=N1

> <standard_relation>
=

> <predicted_activity_value>
4.536139845515075

> <actual_activity_value>
4.214670164989233

> <Publication ID>
nan

> <standard_units>
nM

> hash
17811700771754468510

$$$$
15_
XXILIB    08252103513D 0   0.00000     0.00000

 18 19  0     1  0            999 V2000
    0.0000    0.0000   -0.0000 O   0  0  0  0  0  2           0  0  0
    2.0513    0.0000    1.1767 N   0  0  0  0  0  3           0  0  0
    4.0977    0.0128   -0.0369 N   0  0  0  0  0  3           0  0  0
    4.1056    0.0199    2.3133 N   0  0  0  0  0  3           0  0  0
    4.1535    0.0359   -2.3920 N   0  0  0  0  0  3           0  0  0
    0.6836    0.0300   -3.4425 N   0  0  0  0  0  3           0  0  0
    1.3858   -0.0000    0.0000 C   0  0  0  0  0  4           0  0  0
    3.3990    0.0093    1.1215 C   0  0  0  0  0  4           0  0  0
    3.4166   -0.0054   -1.2097 C   0  0  0  0  0  4           0  0  0
    2.0251    0.0041   -1.2316 C   0  0  0  0  0  4           0  0  0
   -0.5860   -0.0000    1.3018 C   0  0  0  0  0  4           0  0  0
    1.2847    0.0188   -2.4496 C   0  0  0  0  0  4           0  0  0
   -2.1044   -0.0000    1.1524 C   0  0  1  0  0  4           0  0  0
   -2.6311   -1.2270    0.3888 C   0  0  0  0  0  4           0  0  0
   -2.6477    1.3082    0.5526 C   0  0  0  0  0  4           0  0  0
   -2.5294   -1.1184   -1.1306 C   0  0  0  0  0  4           0  0  0
   -2.5462    1.3974   -0.9680 C   0  0  0  0  0  4           0  0  0
   -3.1486    0.1741   -1.6476 C   0  0  0  0  0  4           0  0  0
  1  7  1  0     0  0
  1 11  1  0     0  0
  2  7  2  0     0  0
  2  8  1  0     0  0
  3  8  2  0     0  0
  3  9  1  0     0  0
  4  8  1  0     0  0
  5  9  1  0     0  0
  6 12  3  0     0  0
  7 10  1  0     0  0
  9 10  2  0     0  0
 10 12  1  0     0  0
 11 13  1  0     0  0
 13 14  1  0     0  0
 13 15  1  0     0  0
 14 16  1  0     0  0
 15 17  1  0     0  0
 16 18  1  0     0  0
 17 18  1  0     0  0
M  END
> <Compound >
15

> <standard_type>
pIC50

> <# Confs.>
25

> <canonical_smiles>
NC1=NC(N)=C(C#N)C(OCC2CCCCC2)=N1

> <standard_relation>
=

> <predicted_activity_value>
4.536139845515075

> <actual_activity_value>
4.214670164989233

> <Publication ID>
nan

> <standard_units>
nM

> hash
17811700771754468510

$$$$
15_
XXILIB    08252103513D 0   0.00000     0.00000

 18 19  0     1  0            999 V2000
    0.0000    0.0000    0.0000 O   0  0  0  0  0  2           0  0  0
    2.0513   -0.5884    1.0191 N   0  0  0  0  0  3           0  0  0
    4.0977    0.0295   -0.0255 N   0  0  0  0  0  3           0  0  0
    4.1056   -1.1394    2.0133 N   0  0  0  0  0  3           0  0  0
    4.1535    1.2271   -2.0536 N   0  0  0  0  0  3           0  0  0
    0.6836    1.7472   -2.9663 N   0  0  0  0  0  3           0  0  0
    1.3858   -0.0000    0.0000 C   0  0  0  0  0  4           0  0  0
    3.3990   -0.5527    0.9760 C   0  0  0  0  0  4           0  0  0
    3.4166    0.6002   -1.0503 C   0  0  0  0  0  4           0  0  0
    2.0251    0.6193   -1.0646 C   0  0  0  0  0  4           0  0  0
   -0.5860   -0.0000    1.3018 C   0  0  0  0  0  4           0  0  0
    1.2847    1.2411   -2.1120 C   0  0  0  0  0  4           0  0  0
   -1.9277   -0.7229    1.2320 C   0  0  1  0  0  4           0  0  0
   -1.7573   -2.1773    0.7607 C   0  0  0  0  0  4           0  0  0
   -2.6347   -0.6708    2.5931 C   0  0  0  0  0  4           0  0  0
   -3.0873   -2.9281    0.7470 C   0  0  0  0  0  4           0  0  0
   -3.9631   -1.4229    2.5723 C   0  0  0  0  0  4           0  0  0
   -3.7867   -2.8624    2.1007 C   0  0  0  0  0  4           0  0  0
  1  7  1  0     0  0
  1 11  1  0     0  0
  2  7  2  0     0  0
  2  8  1  0     0  0
  3  8  2  0     0  0
  3  9  1  0     0  0
  4  8  1  0     0  0
  5  9  1  0     0  0
  6 12  3  0     0  0
  7 10  1  0     0  0
  9 10  2  0     0  0
 10 12  1  0     0  0
 11 13  1  0     0  0
 13 14  1  0     0  0
 13 15  1  0     0  0
 14 16  1  0     0  0
 15 17  1  0     0  0
 16 18  1  0     0  0
 17 18  1  0     0  0
M  END
> <Compound >
15

> <standard_type>
pIC50

> <# Confs.>
25

> <canonical_smiles>
NC1=NC(N)=C(C#N)C(OCC2CCCCC2)=N1

> <standard_relation>
=

> <predicted_activity_value>
4.536139845515075

> <actual_activity_value>
4.214670164989233

> <Publication ID>
nan

> <standard_units>
nM

> hash
17811700771754468510

$$$$
15_
XXILIB    08252103513D 0   0.00000     0.00000

 18 19  0     1  0            999 V2000
    0.0000    0.0000   -0.0000 O   0  0  0  0  0  2           0  0  0
    2.0513    0.5884    1.0191 N   0  0  0  0  0  3           0  0  0
    4.0977   -0.0074   -0.0383 N   0  0  0  0  0  3           0  0  0
    4.1056    1.1739    1.9934 N   0  0  0  0  0  3           0  0  0
    4.1535   -1.1649   -2.0895 N   0  0  0  0  0  3           0  0  0
    0.6836   -1.6953   -2.9963 N   0  0  0  0  0  3           0  0  0
    1.3858    0.0000    0.0000 C   0  0  0  0  0  4           0  0  0
    3.3990    0.5689    0.9666 C   0  0  0  0  0  4           0  0  0
    3.4166   -0.6095   -1.0449 C   0  0  0  0  0  4           0  0  0
    2.0251   -0.6123   -1.0687 C   0  0  0  0  0  4           0  0  0
   -0.5860    0.0000    1.3018 C   0  0  0  0  0  4           0  0  0
    1.2847   -1.2085   -2.1308 C   0  0  0  0  0  4           0  0  0
   -1.9277    0.7229    1.2320 C   0  0  1  0  0  4           0  0  0
   -2.8885    0.0286    0.2515 C   0  0  0  0  0  4           0  0  0
   -2.5544    0.8234    2.6293 C   0  0  0  0  0  4           0  0  0
   -4.2559    0.7084    0.2210 C   0  0  0  0  0  4           0  0  0
   -3.9205    1.5037    2.5915 C   0  0  0  0  0  4           0  0  0
   -4.8660    0.8124    1.6148 C   0  0  0  0  0  4           0  0  0
  1  7  1  0     0  0
  1 11  1  0     0  0
  2  7  2  0     0  0
  2  8  1  0     0  0
  3  8  2  0     0  0
  3  9  1  0     0  0
  4  8  1  0     0  0
  5  9  1  0     0  0
  6 12  3  0     0  0
  7 10  1  0     0  0
  9 10  2  0     0  0
 10 12  1  0     0  0
 11 13  1  0     0  0
 13 14  1  0     0  0
 13 15  1  0     0  0
 14 16  1  0     0  0
 15 17  1  0     0  0
 16 18  1  0     0  0
 17 18  1  0     0  0
M  END
> <Compound >
15

> <standard_type>
pIC50

> <# Confs.>
25

> <canonical_smiles>
NC1=NC(N)=C(C#N)C(OCC2CCCCC2)=N1

> <standard_relation>
=

> <predicted_activity_value>
4.536139845515075

> <actual_activity_value>
4.214670164989233

> <Publication ID>
nan

> <standard_units>
nM

> hash
17811700771754468510

$$$$
15_
XXILIB    08252103513D 0   0.00000     0.00000

 18 19  0     1  0            999 V2000
    0.0000    0.0000   -0.0000 O   0  0  0  0  0  2           0  0  0
    2.0513    0.5884    1.0191 N   0  0  0  0  0  3           0  0  0
    4.0977   -0.0074   -0.0383 N   0  0  0  0  0  3           0  0  0
    4.1056    1.1739    1.9934 N   0  0  0  0  0  3           0  0  0
    4.1535   -1.1649   -2.0895 N   0  0  0  0  0  3           0  0  0
    0.6836   -1.6953   -2.9963 N   0  0  0  0  0  3           0  0  0
    1.3858    0.0000    0.0000 C   0  0  0  0  0  4           0  0  0
    3.3990    0.5689    0.9666 C   0  0  0  0  0  4           0  0  0
    3.4166   -0.6095   -1.0449 C   0  0  0  0  0  4           0  0  0
    2.0251   -0.6123   -1.0687 C   0  0  0  0  0  4           0  0  0
   -0.5860    0.0000    1.3018 C   0  0  0  0  0  4           0  0  0
    1.2847   -1.2085   -2.1308 C   0  0  0  0  0  4           0  0  0
   -1.9277    0.7229    1.2320 C   0  0  1  0  0  4           0  0  0
   -2.6170    0.7600    2.6067 C   0  0  0  0  0  4           0  0  0
   -1.7424    2.1418    0.6772 C   0  0  0  0  0  4           0  0  0
   -3.9319    1.5357    2.5606 C   0  0  0  0  0  4           0  0  0
   -3.0602    2.9113    0.6338 C   0  0  0  0  0  4           0  0  0
   -3.7393    2.9405    1.9990 C   0  0  0  0  0  4           0  0  0
  1  7  1  0     0  0
  1 11  1  0     0  0
  2  7  2  0     0  0
  2  8  1  0     0  0
  3  8  2  0     0  0
  3  9  1  0     0  0
  4  8  1  0     0  0
  5  9  1  0     0  0
  6 12  3  0     0  0
  7 10  1  0     0  0
  9 10  2  0     0  0
 10 12  1  0     0  0
 11 13  1  0     0  0
 13 14  1  0     0  0
 13 15  1  0     0  0
 14 16  1  0     0  0
 15 17  1  0     0  0
 16 18  1  0     0  0
 17 18  1  0     0  0
M  END
> <Compound >
15

> <standard_type>
pIC50

> <# Confs.>
25

> <canonical_smiles>
NC1=NC(N)=C(C#N)C(OCC2CCCCC2)=N1

> <standard_relation>
=

> <predicted_activity_value>
4.536139845515075

> <actual_activity_value>
4.214670164989233

> <Publication ID>
nan

> <standard_units>
nM

> hash
17811700771754468510

$$$$
15_
XXILIB    08252103513D 0   0.00000     0.00000

 18 19  0     1  0            999 V2000
    0.0000    0.0000    0.0000 O   0  0  0  0  0  2           0  0  0
    2.0513   -0.5884    1.0191 N   0  0  0  0  0  3           0  0  0
    4.0977    0.0295   -0.0255 N   0  0  0  0  0  3           0  0  0
    4.1056   -1.1394    2.0133 N   0  0  0  0  0  3           0  0  0
    4.1535    1.2271   -2.0536 N   0  0  0  0  0  3           0  0  0
    0.6836    1.7472   -2.9663 N   0  0  0  0  0  3           0  0  0
    1.3858   -0.0000    0.0000 C   0  0  0  0  0  4           0  0  0
    3.3990   -0.5527    0.9760 C   0  0  0  0  0  4           0  0  0
    3.4166    0.6002   -1.0503 C   0  0  0  0  0  4           0  0  0
    2.0251    0.6193   -1.0646 C   0  0  0  0  0  4           0  0  0
   -0.5860   -0.0000    1.3018 C   0  0  0  0  0  4           0  0  0
    1.2847    1.2411   -2.1120 C   0  0  0  0  0  4           0  0  0
   -1.9277   -0.7229    1.2320 C   0  0  1  0  0  4           0  0  0
   -2.8885   -0.0286    0.2515 C   0  0  0  0  0  4           0  0  0
   -1.7232   -2.1938    0.8444 C   0  0  0  0  0  4           0  0  0
   -4.2123   -0.7802    0.1275 C   0  0  0  0  0  4           0  0  0
   -3.0500   -2.9388    0.7224 C   0  0  0  0  0  4           0  0  0
   -3.9983   -2.2427   -0.2481 C   0  0  0  0  0  4           0  0  0
  1  7  1  0     0  0
  1 11  1  0     0  0
  2  7  2  0     0  0
  2  8  1  0     0  0
  3  8  2  0     0  0
  3  9  1  0     0  0
  4  8  1  0     0  0
  5  9  1  0     0  0
  6 12  3  0     0  0
  7 10  1  0     0  0
  9 10  2  0     0  0
 10 12  1  0     0  0
 11 13  1  0     0  0
 13 14  1  0     0  0
 13 15  1  0     0  0
 14 16  1  0     0  0
 15 17  1  0     0  0
 16 18  1  0     0  0
 17 18  1  0     0  0
M  END
> <Compound >
15

> <standard_type>
pIC50

> <# Confs.>
25

> <canonical_smiles>
NC1=NC(N)=C(C#N)C(OCC2CCCCC2)=N1

> <standard_relation>
=

> <predicted_activity_value>
4.536139845515075

> <actual_activity_value>
4.214670164989233

> <Publication ID>
nan

> <standard_units>
nM

> hash
17811700771754468510

$$$$
15_
XXILIB    08252103513D 0   0.00000     0.00000

 18 19  0     1  0            999 V2000
    0.0000    0.0000    0.0000 O   0  0  0  0  0  2           0  0  0
    2.0513   -0.5884    1.0191 N   0  0  0  0  0  3           0  0  0
    4.0977    0.0295   -0.0255 N   0  0  0  0  0  3           0  0  0
    4.1056   -1.1394    2.0133 N   0  0  0  0  0  3           0  0  0
    4.1535    1.2271   -2.0536 N   0  0  0  0  0  3           0  0  0
    0.6836    1.7472   -2.9663 N   0  0  0  0  0  3           0  0  0
    1.3858   -0.0000    0.0000 C   0  0  0  0  0  4           0  0  0
    3.3990   -0.5527    0.9760 C   0  0  0  0  0  4           0  0  0
    3.4166    0.6002   -1.0503 C   0  0  0  0  0  4           0  0  0
    2.0251    0.6193   -1.0646 C   0  0  0  0  0  4           0  0  0
   -0.5860   -0.0000    1.3018 C   0  0  0  0  0  4           0  0  0
    1.2847    1.2411   -2.1120 C   0  0  0  0  0  4           0  0  0
   -1.9277   -0.7229    1.2320 C   0  0  1  0  0  4           0  0  0
   -2.6170   -0.7600    2.6067 C   0  0  0  0  0  4           0  0  0
   -2.8362   -0.0644    0.1848 C   0  0  0  0  0  4           0  0  0
   -3.9892   -1.4269    2.5348 C   0  0  0  0  0  4           0  0  0
   -4.2056   -0.7357    0.1182 C   0  0  0  0  0  4           0  0  0
   -4.8809   -0.7721    1.4851 C   0  0  0  0  0  4           0  0  0
  1  7  1  0     0  0
  1 11  1  0     0  0
  2  7  2  0     0  0
  2  8  1  0     0  0
  3  8  2  0     0  0
  3  9  1  0     0  0
  4  8  1  0     0  0
  5  9  1  0     0  0
  6 12  3  0     0  0
  7 10  1  0     0  0
  9 10  2  0     0  0
 10 12  1  0     0  0
 11 13  1  0     0  0
 13 14  1  0     0  0
 13 15  1  0     0  0
 14 16  1  0     0  0
 15 17  1  0     0  0
 16 18  1  0     0  0
 17 18  1  0     0  0
M  END
> <Compound >
15

> <standard_type>
pIC50

> <# Confs.>
25

> <canonical_smiles>
NC1=NC(N)=C(C#N)C(OCC2CCCCC2)=N1

> <standard_relation>
=

> <predicted_activity_value>
4.536139845515075

> <actual_activity_value>
4.214670164989233

> <Publication ID>
nan

> <standard_units>
nM

> hash
17811700771754468510

$$$$
15_
XXILIB    08252103513D 0   0.00000     0.00000

 18 19  0     1  0            999 V2000
    0.0000    0.0000   -0.0000 O   0  0  0  0  0  2           0  0  0
    2.0513    0.5884    1.0191 N   0  0  0  0  0  3           0  0  0
    4.0977   -0.0074   -0.0383 N   0  0  0  0  0  3           0  0  0
    4.1056    1.1739    1.9934 N   0  0  0  0  0  3           0  0  0
    4.1535   -1.1649   -2.0895 N   0  0  0  0  0  3           0  0  0
    0.6836   -1.6953   -2.9963 N   0  0  0  0  0  3           0  0  0
    1.3858    0.0000    0.0000 C   0  0  0  0  0  4           0  0  0
    3.3990    0.5689    0.9666 C   0  0  0  0  0  4           0  0  0
    3.4166   -0.6095   -1.0449 C   0  0  0  0  0  4           0  0  0
    2.0251   -0.6123   -1.0687 C   0  0  0  0  0  4           0  0  0
   -0.5860    0.0000    1.3018 C   0  0  0  0  0  4           0  0  0
    1.2847   -1.2085   -2.1308 C   0  0  0  0  0  4           0  0  0
   -1.9277    0.7229    1.2320 C   0  0  1  0  0  4           0  0  0
   -1.7573    2.1773    0.7607 C   0  0  0  0  0  4           0  0  0
   -2.8972   -0.0363    0.3159 C   0  0  0  0  0  4           0  0  0
   -3.1010    2.8910    0.6278 C   0  0  0  0  0  4           0  0  0
   -4.2379    0.6824    0.1877 C   0  0  0  0  0  4           0  0  0
   -4.0607    2.1243   -0.2762 C   0  0  0  0  0  4           0  0  0
  1  7  1  0     0  0
  1 11  1  0     0  0
  2  7  2  0     0  0
  2  8  1  0     0  0
  3  8  2  0     0  0
  3  9  1  0     0  0
  4  8  1  0     0  0
  5  9  1  0     0  0
  6 12  3  0     0  0
  7 10  1  0     0  0
  9 10  2  0     0  0
 10 12  1  0     0  0
 11 13  1  0     0  0
 13 14  1  0     0  0
 13 15  1  0     0  0
 14 16  1  0     0  0
 15 17  1  0     0  0
 16 18  1  0     0  0
 17 18  1  0     0  0
M  END
> <Compound >
15

> <standard_type>
pIC50

> <# Confs.>
25

> <canonical_smiles>
NC1=NC(N)=C(C#N)C(OCC2CCCCC2)=N1

> <standard_relation>
=

> <predicted_activity_value>
4.536139845515075

> <actual_activity_value>
4.214670164989233

> <Publication ID>
nan

> <standard_units>
nM

> hash
17811700771754468510

$$$$
15_
XXILIB    08252103513D 0   0.00000     0.00000

 18 19  0     1  0            999 V2000
    0.0000    0.0000   -0.0000 O   0  0  0  0  0  2           0  0  0
    2.0513   -0.5884    1.0191 N   0  0  0  0  0  3           0  0  0
    4.0977    0.0295   -0.0255 N   0  0  0  0  0  3           0  0  0
    4.1056   -1.1394    2.0133 N   0  0  0  0  0  3           0  0  0
    4.1535    1.2271   -2.0536 N   0  0  0  0  0  3           0  0  0
    0.6836    1.7472   -2.9663 N   0  0  0  0  0  3           0  0  0
    1.3858   -0.0000    0.0000 C   0  0  0  0  0  4           0  0  0
    3.3990   -0.5527    0.9760 C   0  0  0  0  0  4           0  0  0
    3.4166    0.6002   -1.0503 C   0  0  0  0  0  4           0  0  0
    2.0251    0.6193   -1.0646 C   0  0  0  0  0  4           0  0  0
   -0.5860   -0.0000    1.3018 C   0  0  0  0  0  4           0  0  0
    1.2847    1.2411   -2.1120 C   0  0  0  0  0  4           0  0  0
   -1.4452    1.2521    1.4492 C   0  0  1  0  0  4           0  0  0
   -2.5663    1.2901    0.3965 C   0  0  0  0  0  4           0  0  0
   -2.0263    1.3381    2.8670 C   0  0  0  0  0  4           0  0  0
   -3.4698    2.5085    0.5748 C   0  0  0  0  0  4           0  0  0
   -2.9281    2.5579    3.0382 C   0  0  0  0  0  4           0  0  0
   -4.0345    2.5907    1.9891 C   0  0  0  0  0  4           0  0  0
  1  7  1  0     0  0
  1 11  1  0     0  0
  2  7  2  0     0  0
  2  8  1  0     0  0
  3  8  2  0     0  0
  3  9  1  0     0  0
  4  8  1  0     0  0
  5  9  1  0     0  0
  6 12  3  0     0  0
  7 10  1  0     0  0
  9 10  2  0     0  0
 10 12  1  0     0  0
 11 13  1  0     0  0
 13 14  1  0     0  0
 13 15  1  0     0  0
 14 16  1  0     0  0
 15 17  1  0     0  0
 16 18  1  0     0  0
 17 18  1  0     0  0
M  END
> <Compound >
15

> <standard_type>
pIC50

> <# Confs.>
25

> <canonical_smiles>
NC1=NC(N)=C(C#N)C(OCC2CCCCC2)=N1

> <standard_relation>
=

> <predicted_activity_value>
4.536139845515075

> <actual_activity_value>
4.214670164989233

> <Publication ID>
nan

> <standard_units>
nM

> hash
17811700771754468510

$$$$
15_
XXILIB    08252103513D 0   0.00000     0.00000

 18 19  0     1  0            999 V2000
    0.0000    0.0000   -0.0000 O   0  0  0  0  0  2           0  0  0
    2.0513   -1.0191    0.5884 N   0  0  0  0  0  3           0  0  0
    4.0977    0.0383   -0.0074 N   0  0  0  0  0  3           0  0  0
    4.1056   -1.9934    1.1739 N   0  0  0  0  0  3           0  0  0
    4.1535    2.0895   -1.1649 N   0  0  0  0  0  3           0  0  0
    0.6836    2.9963   -1.6953 N   0  0  0  0  0  3           0  0  0
    1.3858   -0.0000    0.0000 C   0  0  0  0  0  4           0  0  0
    3.3990   -0.9666    0.5689 C   0  0  0  0  0  4           0  0  0
    3.4166    1.0449   -0.6095 C   0  0  0  0  0  4           0  0  0
    2.0251    1.0687   -0.6123 C   0  0  0  0  0  4           0  0  0
   -0.5860    0.0000    1.3018 C   0  0  0  0  0  4           0  0  0
    1.2847    2.1308   -1.2085 C   0  0  0  0  0  4           0  0  0
   -1.9277    0.7229    1.2320 C   0  0  1  0  0  4           0  0  0
   -2.8885    0.0286    0.2515 C   0  0  0  0  0  4           0  0  0
   -2.5544    0.8234    2.6293 C   0  0  0  0  0  4           0  0  0
   -4.2559    0.7084    0.2210 C   0  0  0  0  0  4           0  0  0
   -3.9205    1.5037    2.5915 C   0  0  0  0  0  4           0  0  0
   -4.8660    0.8124    1.6148 C   0  0  0  0  0  4           0  0  0
  1  7  1  0     0  0
  1 11  1  0     0  0
  2  7  2  0     0  0
  2  8  1  0     0  0
  3  8  2  0     0  0
  3  9  1  0     0  0
  4  8  1  0     0  0
  5  9  1  0     0  0
  6 12  3  0     0  0
  7 10  1  0     0  0
  9 10  2  0     0  0
 10 12  1  0     0  0
 11 13  1  0     0  0
 13 14  1  0     0  0
 13 15  1  0     0  0
 14 16  1  0     0  0
 15 17  1  0     0  0
 16 18  1  0     0  0
 17 18  1  0     0  0
M  END
> <Compound >
15

> <standard_type>
pIC50

> <# Confs.>
25

> <canonical_smiles>
NC1=NC(N)=C(C#N)C(OCC2CCCCC2)=N1

> <standard_relation>
=

> <predicted_activity_value>
4.536139845515075

> <actual_activity_value>
4.214670164989233

> <Publication ID>
nan

> <standard_units>
nM

> hash
17811700771754468510

$$$$
15_
XXILIB    08252103513D 0   0.00000     0.00000

 18 19  0     1  0            999 V2000
    0.0000    0.0000    0.0000 O   0  0  0  0  0  2           0  0  0
    2.0513    0.5884    1.0191 N   0  0  0  0  0  3           0  0  0
    4.0977   -0.0074   -0.0383 N   0  0  0  0  0  3           0  0  0
    4.1056    1.1739    1.9934 N   0  0  0  0  0  3           0  0  0
    4.1535   -1.1649   -2.0895 N   0  0  0  0  0  3           0  0  0
    0.6836   -1.6953   -2.9963 N   0  0  0  0  0  3           0  0  0
    1.3858    0.0000    0.0000 C   0  0  0  0  0  4           0  0  0
    3.3990    0.5689    0.9666 C   0  0  0  0  0  4           0  0  0
    3.4166   -0.6095   -1.0449 C   0  0  0  0  0  4           0  0  0
    2.0251   -0.6123   -1.0687 C   0  0  0  0  0  4           0  0  0
   -0.5860    0.0000    1.3018 C   0  0  0  0  0  4           0  0  0
    1.2847   -1.2085   -2.1308 C   0  0  0  0  0  4           0  0  0
   -1.4452   -1.2521    1.4492 C   0  0  1  0  0  4           0  0  0
   -0.6070   -2.5307    1.2785 C   0  0  0  0  0  4           0  0  0
   -2.1654   -1.2500    2.8044 C   0  0  0  0  0  4           0  0  0
   -1.4458   -3.7901    1.4860 C   0  0  0  0  0  4           0  0  0
   -3.0018   -2.5112    3.0050 C   0  0  0  0  0  4           0  0  0
   -2.1652   -3.7742    2.8306 C   0  0  0  0  0  4           0  0  0
  1  7  1  0     0  0
  1 11  1  0     0  0
  2  7  2  0     0  0
  2  8  1  0     0  0
  3  8  2  0     0  0
  3  9  1  0     0  0
  4  8  1  0     0  0
  5  9  1  0     0  0
  6 12  3  0     0  0
  7 10  1  0     0  0
  9 10  2  0     0  0
 10 12  1  0     0  0
 11 13  1  0     0  0
 13 14  1  0     0  0
 13 15  1  0     0  0
 14 16  1  0     0  0
 15 17  1  0     0  0
 16 18  1  0     0  0
 17 18  1  0     0  0
M  END
> <Compound >
15

> <standard_type>
pIC50

> <# Confs.>
25

> <canonical_smiles>
NC1=NC(N)=C(C#N)C(OCC2CCCCC2)=N1

> <standard_relation>
=

> <predicted_activity_value>
4.536139845515075

> <actual_activity_value>
4.214670164989233

> <Publication ID>
nan

> <standard_units>
nM

> hash
17811700771754468510

$$$$
15_
XXILIB    08252103513D 0   0.00000     0.00000

 18 19  0     1  0            999 V2000
    0.0000    0.0000    0.0000 O   0  0  0  0  0  2           0  0  0
    2.0513    0.0000    1.1767 N   0  0  0  0  0  3           0  0  0
    4.0977    0.0128   -0.0369 N   0  0  0  0  0  3           0  0  0
    4.1056    0.0199    2.3133 N   0  0  0  0  0  3           0  0  0
    4.1535    0.0359   -2.3920 N   0  0  0  0  0  3           0  0  0
    0.6836    0.0300   -3.4425 N   0  0  0  0  0  3           0  0  0
    1.3858   -0.0000    0.0000 C   0  0  0  0  0  4           0  0  0
    3.3990    0.0093    1.1215 C   0  0  0  0  0  4           0  0  0
    3.4166   -0.0054   -1.2097 C   0  0  0  0  0  4           0  0  0
    2.0251    0.0041   -1.2316 C   0  0  0  0  0  4           0  0  0
   -0.5860    0.0000    1.3018 C   0  0  0  0  0  4           0  0  0
    1.2847    0.0188   -2.4496 C   0  0  0  0  0  4           0  0  0
   -0.7860   -1.4458    1.7459 C   0  0  1  0  0  4           0  0  0
   -1.7096   -2.2306    0.7972 C   0  0  0  0  0  4           0  0  0
   -1.3083   -1.5226    3.1884 C   0  0  0  0  0  4           0  0  0
   -3.1768   -1.8225    0.9211 C   0  0  0  0  0  4           0  0  0
   -2.7735   -1.1086    3.3130 C   0  0  0  0  0  4           0  0  0
   -3.6646   -1.9041    2.3645 C   0  0  0  0  0  4           0  0  0
  1  7  1  0     0  0
  1 11  1  0     0  0
  2  7  2  0     0  0
  2  8  1  0     0  0
  3  8  2  0     0  0
  3  9  1  0     0  0
  4  8  1  0     0  0
  5  9  1  0     0  0
  6 12  3  0     0  0
  7 10  1  0     0  0
  9 10  2  0     0  0
 10 12  1  0     0  0
 11 13  1  0     0  0
 13 14  1  0     0  0
 13 15  1  0     0  0
 14 16  1  0     0  0
 15 17  1  0     0  0
 16 18  1  0     0  0
 17 18  1  0     0  0
M  END
> <Compound >
15

> <standard_type>
pIC50

> <# Confs.>
25

> <canonical_smiles>
NC1=NC(N)=C(C#N)C(OCC2CCCCC2)=N1

> <standard_relation>
=

> <predicted_activity_value>
4.536139845515075

> <actual_activity_value>
4.214670164989233

> <Publication ID>
nan

> <standard_units>
nM

> hash
17811700771754468510

$$$$
15_
XXILIB    08252103513D 0   0.00000     0.00000

 18 19  0     1  0            999 V2000
    0.0000    0.0000    0.0000 O   0  0  0  0  0  2           0  0  0
    2.0513    0.5884    1.0191 N   0  0  0  0  0  3           0  0  0
    4.0977   -0.0074   -0.0383 N   0  0  0  0  0  3           0  0  0
    4.1056    1.1739    1.9934 N   0  0  0  0  0  3           0  0  0
    4.1535   -1.1649   -2.0895 N   0  0  0  0  0  3           0  0  0
    0.6836   -1.6953   -2.9963 N   0  0  0  0  0  3           0  0  0
    1.3858    0.0000    0.0000 C   0  0  0  0  0  4           0  0  0
    3.3990    0.5689    0.9666 C   0  0  0  0  0  4           0  0  0
    3.4166   -0.6095   -1.0449 C   0  0  0  0  0  4           0  0  0
    2.0251   -0.6123   -1.0687 C   0  0  0  0  0  4           0  0  0
   -0.5860    0.0000    1.3018 C   0  0  0  0  0  4           0  0  0
    1.2847   -1.2085   -2.1308 C   0  0  0  0  0  4           0  0  0
   -1.4452   -1.2521    1.4492 C   0  0  1  0  0  4           0  0  0
   -2.1097   -1.3163    2.8351 C   0  0  0  0  0  4           0  0  0
   -2.5001   -1.3109    0.3361 C   0  0  0  0  0  4           0  0  0
   -3.0213   -2.5343    2.9705 C   0  0  0  0  0  4           0  0  0
   -3.4076   -2.5304    0.4774 C   0  0  0  0  0  4           0  0  0
   -4.0596   -2.5892    1.8548 C   0  0  0  0  0  4           0  0  0
  1  7  1  0     0  0
  1 11  1  0     0  0
  2  7  2  0     0  0
  2  8  1  0     0  0
  3  8  2  0     0  0
  3  9  1  0     0  0
  4  8  1  0     0  0
  5  9  1  0     0  0
  6 12  3  0     0  0
  7 10  1  0     0  0
  9 10  2  0     0  0
 10 12  1  0     0  0
 11 13  1  0     0  0
 13 14  1  0     0  0
 13 15  1  0     0  0
 14 16  1  0     0  0
 15 17  1  0     0  0
 16 18  1  0     0  0
 17 18  1  0     0  0
M  END
> <Compound >
15

> <standard_type>
pIC50

> <# Confs.>
25

> <canonical_smiles>
NC1=NC(N)=C(C#N)C(OCC2CCCCC2)=N1

> <standard_relation>
=

> <predicted_activity_value>
4.536139845515075

> <actual_activity_value>
4.214670164989233

> <Publication ID>
nan

> <standard_units>
nM

> hash
17811700771754468510

$$$$
15_
XXILIB    08252103513D 0   0.00000     0.00000

 18 19  0     1  0            999 V2000
    0.0000    0.0000   -0.0000 O   0  0  0  0  0  2           0  0  0
    2.0513   -0.5884    1.0191 N   0  0  0  0  0  3           0  0  0
    4.0977    0.0295   -0.0255 N   0  0  0  0  0  3           0  0  0
    4.1056   -1.1394    2.0133 N   0  0  0  0  0  3           0  0  0
    4.1535    1.2271   -2.0536 N   0  0  0  0  0  3           0  0  0
    0.6836    1.7472   -2.9663 N   0  0  0  0  0  3           0  0  0
    1.3858   -0.0000    0.0000 C   0  0  0  0  0  4           0  0  0
    3.3990   -0.5527    0.9760 C   0  0  0  0  0  4           0  0  0
    3.4166    0.6002   -1.0503 C   0  0  0  0  0  4           0  0  0
    2.0251    0.6193   -1.0646 C   0  0  0  0  0  4           0  0  0
   -0.5860   -0.0000    1.3018 C   0  0  0  0  0  4           0  0  0
    1.2847    1.2411   -2.1120 C   0  0  0  0  0  4           0  0  0
   -1.4452    1.2521    1.4492 C   0  0  1  0  0  4           0  0  0
   -0.6070    2.5307    1.2785 C   0  0  0  0  0  4           0  0  0
   -2.6069    1.2247    0.4466 C   0  0  0  0  0  4           0  0  0
   -1.4689    3.7887    1.3625 C   0  0  0  0  0  4           0  0  0
   -3.4641    2.4847    0.5360 C   0  0  0  0  0  4           0  0  0
   -2.6259    3.7478    0.3697 C   0  0  0  0  0  4           0  0  0
  1  7  1  0     0  0
  1 11  1  0     0  0
  2  7  2  0     0  0
  2  8  1  0     0  0
  3  8  2  0     0  0
  3  9  1  0     0  0
  4  8  1  0     0  0
  5  9  1  0     0  0
  6 12  3  0     0  0
  7 10  1  0     0  0
  9 10  2  0     0  0
 10 12  1  0     0  0
 11 13  1  0     0  0
 13 14  1  0     0  0
 13 15  1  0     0  0
 14 16  1  0     0  0
 15 17  1  0     0  0
 16 18  1  0     0  0
 17 18  1  0     0  0
M  END
> <Compound >
15

> <standard_type>
pIC50

> <# Confs.>
25

> <canonical_smiles>
NC1=NC(N)=C(C#N)C(OCC2CCCCC2)=N1

> <standard_relation>
=

> <predicted_activity_value>
4.536139845515075

> <actual_activity_value>
4.214670164989233

> <Publication ID>
nan

> <standard_units>
nM

> hash
17811700771754468510

$$$$
15_
XXILIB    08252103513D 0   0.00000     0.00000

 18 19  0     1  0            999 V2000
    0.0000    0.0000    0.0000 O   0  0  0  0  0  2           0  0  0
    2.0513    0.5884    1.0191 N   0  0  0  0  0  3           0  0  0
    4.0977   -0.0074   -0.0383 N   0  0  0  0  0  3           0  0  0
    4.1056    1.1739    1.9934 N   0  0  0  0  0  3           0  0  0
    4.1535   -1.1649   -2.0895 N   0  0  0  0  0  3           0  0  0
    0.6836   -1.6953   -2.9963 N   0  0  0  0  0  3           0  0  0
    1.3858    0.0000    0.0000 C   0  0  0  0  0  4           0  0  0
    3.3990    0.5689    0.9666 C   0  0  0  0  0  4           0  0  0
    3.4166   -0.6095   -1.0449 C   0  0  0  0  0  4           0  0  0
    2.0251   -0.6123   -1.0687 C   0  0  0  0  0  4           0  0  0
   -0.5860    0.0000    1.3018 C   0  0  0  0  0  4           0  0  0
    1.2847   -1.2085   -2.1308 C   0  0  0  0  0  4           0  0  0
   -1.4452   -1.2521    1.4492 C   0  0  1  0  0  4           0  0  0
   -2.5663   -1.2901    0.3965 C   0  0  0  0  0  4           0  0  0
   -0.5733   -2.5122    1.3621 C   0  0  0  0  0  4           0  0  0
   -3.3937   -2.5700    0.4960 C   0  0  0  0  0  4           0  0  0
   -1.4066   -3.7874    1.4622 C   0  0  0  0  0  4           0  0  0
   -2.5179   -3.8161    0.4183 C   0  0  0  0  0  4           0  0  0
  1  7  1  0     0  0
  1 11  1  0     0  0
  2  7  2  0     0  0
  2  8  1  0     0  0
  3  8  2  0     0  0
  3  9  1  0     0  0
  4  8  1  0     0  0
  5  9  1  0     0  0
  6 12  3  0     0  0
  7 10  1  0     0  0
  9 10  2  0     0  0
 10 12  1  0     0  0
 11 13  1  0     0  0
 13 14  1  0     0  0
 13 15  1  0     0  0
 14 16  1  0     0  0
 15 17  1  0     0  0
 16 18  1  0     0  0
 17 18  1  0     0  0
M  END
> <Compound >
15

> <standard_type>
pIC50

> <# Confs.>
25

> <canonical_smiles>
NC1=NC(N)=C(C#N)C(OCC2CCCCC2)=N1

> <standard_relation>
=

> <predicted_activity_value>
4.536139845515075

> <actual_activity_value>
4.214670164989233

> <Publication ID>
nan

> <standard_units>
nM

> hash
17811700771754468510

$$$$
15_
XXILIB    08252103513D 0   0.00000     0.00000

 18 19  0     1  0            999 V2000
    0.0000    0.0000   -0.0000 O   0  0  0  0  0  2           0  0  0
    2.0513    0.5884    1.0191 N   0  0  0  0  0  3           0  0  0
    4.0977   -0.0074   -0.0383 N   0  0  0  0  0  3           0  0  0
    4.1056    1.1739    1.9934 N   0  0  0  0  0  3           0  0  0
    4.1535   -1.1649   -2.0895 N   0  0  0  0  0  3           0  0  0
    0.6836   -1.6953   -2.9963 N   0  0  0  0  0  3           0  0  0
    1.3858    0.0000    0.0000 C   0  0  0  0  0  4           0  0  0
    3.3990    0.5689    0.9666 C   0  0  0  0  0  4           0  0  0
    3.4166   -0.6095   -1.0449 C   0  0  0  0  0  4           0  0  0
    2.0251   -0.6123   -1.0687 C   0  0  0  0  0  4           0  0  0
   -0.5860    0.0000    1.3018 C   0  0  0  0  0  4           0  0  0
    1.2847   -1.2085   -2.1308 C   0  0  0  0  0  4           0  0  0
   -1.9277    0.7229    1.2320 C   0  0  1  0  0  4           0  0  0
   -1.7864    2.1819    0.7626 C   0  0  0  0  0  4           0  0  0
   -2.6691    0.6611    2.5758 C   0  0  0  0  0  4           0  0  0
   -1.1709    3.0925    1.8241 C   0  0  0  0  0  4           0  0  0
   -2.0499    1.5668    3.6388 C   0  0  0  0  0  4           0  0  0
   -1.9252    3.0054    3.1475 C   0  0  0  0  0  4           0  0  0
  1  7  1  0     0  0
  1 11  1  0     0  0
  2  7  2  0     0  0
  2  8  1  0     0  0
  3  8  2  0     0  0
  3  9  1  0     0  0
  4  8  1  0     0  0
  5  9  1  0     0  0
  6 12  3  0     0  0
  7 10  1  0     0  0
  9 10  2  0     0  0
 10 12  1  0     0  0
 11 13  1  0     0  0
 13 14  1  0     0  0
 13 15  1  0     0  0
 14 16  1  0     0  0
 15 17  1  0     0  0
 16 18  1  0     0  0
 17 18  1  0     0  0
M  END
> <Compound >
15

> <standard_type>
pIC50

> <# Confs.>
25

> <canonical_smiles>
NC1=NC(N)=C(C#N)C(OCC2CCCCC2)=N1

> <standard_relation>
=

> <predicted_activity_value>
4.536139845515075

> <actual_activity_value>
4.214670164989233

> <Publication ID>
nan

> <standard_units>
nM

> hash
17811700771754468510

$$$$
15_
XXILIB    08252103513D 0   0.00000     0.00000

 18 19  0     1  0            999 V2000
    0.0000    0.0000    0.0000 O   0  0  0  0  0  2           0  0  0
    2.0513    1.0191    0.5884 N   0  0  0  0  0  3           0  0  0
    4.0977   -0.0255   -0.0295 N   0  0  0  0  0  3           0  0  0
    4.1056    2.0133    1.1394 N   0  0  0  0  0  3           0  0  0
    4.1535   -2.0536   -1.2271 N   0  0  0  0  0  3           0  0  0
    0.6836   -2.9663   -1.7472 N   0  0  0  0  0  3           0  0  0
    1.3858    0.0000    0.0000 C   0  0  0  0  0  4           0  0  0
    3.3990    0.9760    0.5527 C   0  0  0  0  0  4           0  0  0
    3.4166   -1.0503   -0.6002 C   0  0  0  0  0  4           0  0  0
    2.0251   -1.0646   -0.6193 C   0  0  0  0  0  4           0  0  0
   -0.5860   -0.0000    1.3018 C   0  0  0  0  0  4           0  0  0
    1.2847   -2.1120   -1.2411 C   0  0  0  0  0  4           0  0  0
   -1.9277   -0.7229    1.2320 C   0  0  1  0  0  4           0  0  0
   -2.6170   -0.7600    2.6067 C   0  0  0  0  0  4           0  0  0
   -2.8362   -0.0644    0.1848 C   0  0  0  0  0  4           0  0  0
   -3.9892   -1.4269    2.5348 C   0  0  0  0  0  4           0  0  0
   -4.2056   -0.7357    0.1182 C   0  0  0  0  0  4           0  0  0
   -4.8809   -0.7721    1.4851 C   0  0  0  0  0  4           0  0  0
  1  7  1  0     0  0
  1 11  1  0     0  0
  2  7  2  0     0  0
  2  8  1  0     0  0
  3  8  2  0     0  0
  3  9  1  0     0  0
  4  8  1  0     0  0
  5  9  1  0     0  0
  6 12  3  0     0  0
  7 10  1  0     0  0
  9 10  2  0     0  0
 10 12  1  0     0  0
 11 13  1  0     0  0
 13 14  1  0     0  0
 13 15  1  0     0  0
 14 16  1  0     0  0
 15 17  1  0     0  0
 16 18  1  0     0  0
 17 18  1  0     0  0
M  END
> <Compound >
15

> <standard_type>
pIC50

> <# Confs.>
25

> <canonical_smiles>
NC1=NC(N)=C(C#N)C(OCC2CCCCC2)=N1

> <standard_relation>
=

> <predicted_activity_value>
4.536139845515075

> <actual_activity_value>
4.214670164989233

> <Publication ID>
nan

> <standard_units>
nM

> hash
17811700771754468510

$$$$
15_
XXILIB    08252103513D 0   0.00000     0.00000

 18 19  0     1  0            999 V2000
    0.0000    0.0000   -0.0000 O   0  0  0  0  0  2           0  0  0
    2.0513   -0.5884    1.0191 N   0  0  0  0  0  3           0  0  0
    4.0977    0.0295   -0.0255 N   0  0  0  0  0  3           0  0  0
    4.1056   -1.1394    2.0133 N   0  0  0  0  0  3           0  0  0
    4.1535    1.2271   -2.0536 N   0  0  0  0  0  3           0  0  0
    0.6836    1.7472   -2.9663 N   0  0  0  0  0  3           0  0  0
    1.3858   -0.0000    0.0000 C   0  0  0  0  0  4           0  0  0
    3.3990   -0.5527    0.9760 C   0  0  0  0  0  4           0  0  0
    3.4166    0.6002   -1.0503 C   0  0  0  0  0  4           0  0  0
    2.0251    0.6193   -1.0646 C   0  0  0  0  0  4           0  0  0
   -0.5860   -0.0000    1.3018 C   0  0  0  0  0  4           0  0  0
    1.2847    1.2411   -2.1120 C   0  0  0  0  0  4           0  0  0
   -1.4452    1.2521    1.4492 C   0  0  1  0  0  4           0  0  0
   -2.1097    1.3163    2.8351 C   0  0  0  0  0  4           0  0  0
   -0.6058    2.5103    1.1889 C   0  0  0  0  0  4           0  0  0
   -2.9221    2.5971    3.0151 C   0  0  0  0  0  4           0  0  0
   -1.4238    3.7864    1.3705 C   0  0  0  0  0  4           0  0  0
   -2.0824    3.8411    2.7449 C   0  0  0  0  0  4           0  0  0
  1  7  1  0     0  0
  1 11  1  0     0  0
  2  7  2  0     0  0
  2  8  1  0     0  0
  3  8  2  0     0  0
  3  9  1  0     0  0
  4  8  1  0     0  0
  5  9  1  0     0  0
  6 12  3  0     0  0
  7 10  1  0     0  0
  9 10  2  0     0  0
 10 12  1  0     0  0
 11 13  1  0     0  0
 13 14  1  0     0  0
 13 15  1  0     0  0
 14 16  1  0     0  0
 15 17  1  0     0  0
 16 18  1  0     0  0
 17 18  1  0     0  0
M  END
> <Compound >
15

> <standard_type>
pIC50

> <# Confs.>
25

> <canonical_smiles>
NC1=NC(N)=C(C#N)C(OCC2CCCCC2)=N1

> <standard_relation>
=

> <predicted_activity_value>
4.536139845515075

> <actual_activity_value>
4.214670164989233

> <Publication ID>
nan

> <standard_units>
nM

> hash
17811700771754468510

$$$$
15_
XXILIB    08252103513D 0   0.00000     0.00000

 18 19  0     1  0            999 V2000
    0.0000    0.0000    0.0000 O   0  0  0  0  0  2           0  0  0
    2.0513    0.0000    1.1767 N   0  0  0  0  0  3           0  0  0
    4.0977    0.0128   -0.0369 N   0  0  0  0  0  3           0  0  0
    4.1056    0.0199    2.3133 N   0  0  0  0  0  3           0  0  0
    4.1535    0.0359   -2.3920 N   0  0  0  0  0  3           0  0  0
    0.6836    0.0300   -3.4425 N   0  0  0  0  0  3           0  0  0
    1.3858   -0.0000    0.0000 C   0  0  0  0  0  4           0  0  0
    3.3990    0.0093    1.1215 C   0  0  0  0  0  4           0  0  0
    3.4166   -0.0054   -1.2097 C   0  0  0  0  0  4           0  0  0
    2.0251    0.0041   -1.2316 C   0  0  0  0  0  4           0  0  0
   -0.5860    0.0000    1.3018 C   0  0  0  0  0  4           0  0  0
    1.2847    0.0188   -2.4496 C   0  0  0  0  0  4           0  0  0
   -0.7860    1.4458    1.7459 C   0  0  1  0  0  4           0  0  0
   -1.4163    1.5495    3.1462 C   0  0  0  0  0  4           0  0  0
   -1.6160    2.2371    0.7240 C   0  0  0  0  0  4           0  0  0
   -2.8970    1.1726    3.1627 C   0  0  0  0  0  4           0  0  0
   -3.0951    1.8557    0.7363 C   0  0  0  0  0  4           0  0  0
   -3.6932    1.9707    2.1348 C   0  0  0  0  0  4           0  0  0
  1  7  1  0     0  0
  1 11  1  0     0  0
  2  7  2  0     0  0
  2  8  1  0     0  0
  3  8  2  0     0  0
  3  9  1  0     0  0
  4  8  1  0     0  0
  5  9  1  0     0  0
  6 12  3  0     0  0
  7 10  1  0     0  0
  9 10  2  0     0  0
 10 12  1  0     0  0
 11 13  1  0     0  0
 13 14  1  0     0  0
 13 15  1  0     0  0
 14 16  1  0     0  0
 15 17  1  0     0  0
 16 18  1  0     0  0
 17 18  1  0     0  0
M  END
> <Compound >
15

> <standard_type>
pIC50

> <# Confs.>
25

> <canonical_smiles>
NC1=NC(N)=C(C#N)C(OCC2CCCCC2)=N1

> <standard_relation>
=

> <predicted_activity_value>
4.536139845515075

> <actual_activity_value>
4.214670164989233

> <Publication ID>
nan

> <standard_units>
nM

> hash
17811700771754468510

$$$$
14_
XXILIB    08252103513D 0   0.00000     0.00000

 21 23  0     1  0            999 V2000
    0.8084   -1.4814   -3.2505 S   0  0  0  0  0  2           0  0  0
    0.0000   -0.0000    0.0000 O   0  0  0  0  0  2           0  0  0
    2.0467    0.0000    1.1796 N   0  0  0  0  0  3           0  0  0
    4.0967   -0.0012   -0.0242 N   0  0  0  0  0  3           0  0  0
    4.0942    0.0014    2.3257 N   0  0  0  0  0  3           0  0  0
    4.1704    0.0202   -2.3758 N   0  0  0  0  0  3           0  0  0
    1.2698   -0.0040   -2.4926 C   0  0  0  0  0  4           0  0  0
    0.0418   -0.6731   -4.5437 C   0  0  0  0  0  4           0  0  0
    1.3861    0.0000    0.0000 C   0  0  0  0  0  4           0  0  0
    3.3935    0.0004    1.1304 C   0  0  0  0  0  4           0  0  0
    3.4213   -0.0195   -1.2008 C   0  0  0  0  0  4           0  0  0
    2.0264   -0.0037   -1.2357 C   0  0  0  0  0  4           0  0  0
    0.8251    1.0774   -3.2371 C   0  0  0  0  0  4           0  0  0
    0.1227    0.6930   -4.4160 C   0  0  0  0  0  4           0  0  0
   -0.6156   -0.0000    1.2897 C   0  0  0  0  0  4           0  0  0
   -2.1307   -0.0000    1.1068 C   0  0  1  0  0  4           0  0  0
   -2.6044    1.2385    0.3293 C   0  0  0  0  0  4           0  0  0
   -2.6125   -1.2828    0.4103 C   0  0  0  0  0  4           0  0  0
   -4.1203    1.2373    0.1407 C   0  0  0  0  0  4           0  0  0
   -4.1281   -1.2851    0.2211 C   0  0  0  0  0  4           0  0  0
   -4.6026   -0.0452   -0.5302 C   0  0  0  0  0  4           0  0  0
  1  7  1  0     0  0
  1  8  1  0     0  0
  2  9  1  0     0  0
  2 15  1  0     0  0
  3  9  2  0     0  0
  3 10  1  0     0  0
  4 10  2  0     0  0
  4 11  1  0     0  0
  5 10  1  0     0  0
  6 11  1  0     0  0
  7 12  1  0     0  0
  7 13  2  0     0  0
  8 14  2  0     0  0
  9 12  1  0     0  0
 11 12  2  0     0  0
 13 14  1  0     0  0
 15 16  1  0     0  0
 16 17  1  0     0  0
 16 18  1  0     0  0
 17 19  1  0     0  0
 18 20  1  0     0  0
 19 21  1  0     0  0
 20 21  1  0     0  0
M  END
> <Compound >
14

> <standard_type>
pIC50

> <# Confs.>
25

> <canonical_smiles>
NC1=NC(N)=C(C2=CC=CS2)C(OCC3CCCCC3)=N1

> <standard_relation>
=

> <predicted_activity_value>
4.49815642831505

> <actual_activity_value>
4.259637310505756

> <Publication ID>
nan

> <standard_units>
nM

> hash
6423501613014595294

$$$$
14_
XXILIB    08252103513D 0   0.00000     0.00000

 21 23  0     1  0            999 V2000
    0.8084   -1.4814   -3.2505 S   0  0  0  0  0  2           0  0  0
    0.0000   -0.0000    0.0000 O   0  0  0  0  0  2           0  0  0
    2.0467    0.0000    1.1796 N   0  0  0  0  0  3           0  0  0
    4.0967   -0.0012   -0.0242 N   0  0  0  0  0  3           0  0  0
    4.0942    0.0014    2.3257 N   0  0  0  0  0  3           0  0  0
    4.1704    0.0202   -2.3758 N   0  0  0  0  0  3           0  0  0
    1.2698   -0.0040   -2.4926 C   0  0  0  0  0  4           0  0  0
    0.0418   -0.6731   -4.5437 C   0  0  0  0  0  4           0  0  0
    1.3861    0.0000    0.0000 C   0  0  0  0  0  4           0  0  0
    3.3935    0.0004    1.1304 C   0  0  0  0  0  4           0  0  0
    3.4213   -0.0195   -1.2008 C   0  0  0  0  0  4           0  0  0
    2.0264   -0.0037   -1.2357 C   0  0  0  0  0  4           0  0  0
    0.8251    1.0774   -3.2371 C   0  0  0  0  0  4           0  0  0
    0.1227    0.6930   -4.4160 C   0  0  0  0  0  4           0  0  0
   -0.6156   -0.0000    1.2897 C   0  0  0  0  0  4           0  0  0
   -2.1307   -0.0000    1.1068 C   0  0  1  0  0  4           0  0  0
   -2.6044   -1.2385    0.3293 C   0  0  0  0  0  4           0  0  0
   -2.8596    0.0927    2.4569 C   0  0  0  0  0  4           0  0  0
   -4.1215   -1.2427    0.1500 C   0  0  0  0  0  4           0  0  0
   -4.3766    0.0885    2.2788 C   0  0  0  0  0  4           0  0  0
   -4.8462   -1.1282    1.4875 C   0  0  0  0  0  4           0  0  0
  1  7  1  0     0  0
  1  8  1  0     0  0
  2  9  1  0     0  0
  2 15  1  0     0  0
  3  9  2  0     0  0
  3 10  1  0     0  0
  4 10  2  0     0  0
  4 11  1  0     0  0
  5 10  1  0     0  0
  6 11  1  0     0  0
  7 12  1  0     0  0
  7 13  2  0     0  0
  8 14  2  0     0  0
  9 12  1  0     0  0
 11 12  2  0     0  0
 13 14  1  0     0  0
 15 16  1  0     0  0
 16 17  1  0     0  0
 16 18  1  0     0  0
 17 19  1  0     0  0
 18 20  1  0     0  0
 19 21  1  0     0  0
 20 21  1  0     0  0
M  END
> <Compound >
14

> <standard_type>
pIC50

> <# Confs.>
25

> <canonical_smiles>
NC1=NC(N)=C(C2=CC=CS2)C(OCC3CCCCC3)=N1

> <standard_relation>
=

> <predicted_activity_value>
4.49815642831505

> <actual_activity_value>
4.259637310505756

> <Publication ID>
nan

> <standard_units>
nM

> hash
6423501613014595294

$$$$
14_
XXILIB    08252103513D 0   0.00000     0.00000

 21 23  0     1  0            999 V2000
    0.8084   -1.4814   -3.2505 S   0  0  0  0  0  2           0  0  0
    0.0000   -0.0000    0.0000 O   0  0  0  0  0  2           0  0  0
    2.0467    0.0000    1.1796 N   0  0  0  0  0  3           0  0  0
    4.0967   -0.0012   -0.0242 N   0  0  0  0  0  3           0  0  0
    4.0942    0.0014    2.3257 N   0  0  0  0  0  3           0  0  0
    4.1704    0.0202   -2.3758 N   0  0  0  0  0  3           0  0  0
    1.2698   -0.0040   -2.4926 C   0  0  0  0  0  4           0  0  0
    0.0418   -0.6731   -4.5437 C   0  0  0  0  0  4           0  0  0
    1.3861    0.0000    0.0000 C   0  0  0  0  0  4           0  0  0
    3.3935    0.0004    1.1304 C   0  0  0  0  0  4           0  0  0
    3.4213   -0.0195   -1.2008 C   0  0  0  0  0  4           0  0  0
    2.0264   -0.0037   -1.2357 C   0  0  0  0  0  4           0  0  0
    0.8251    1.0774   -3.2371 C   0  0  0  0  0  4           0  0  0
    0.1227    0.6930   -4.4160 C   0  0  0  0  0  4           0  0  0
   -0.6156   -0.0000    1.2897 C   0  0  0  0  0  4           0  0  0
   -2.1307   -0.0000    1.1068 C   0  0  1  0  0  4           0  0  0
   -2.8616   -0.0000    2.4591 C   0  0  0  0  0  4           0  0  0
   -2.5932    1.1902    0.2510 C   0  0  0  0  0  4           0  0  0
   -4.3784    0.0054    2.2775 C   0  0  0  0  0  4           0  0  0
   -4.1098    1.1966    0.0690 C   0  0  0  0  0  4           0  0  0
   -4.8368    1.1734    1.4098 C   0  0  0  0  0  4           0  0  0
  1  7  1  0     0  0
  1  8  1  0     0  0
  2  9  1  0     0  0
  2 15  1  0     0  0
  3  9  2  0     0  0
  3 10  1  0     0  0
  4 10  2  0     0  0
  4 11  1  0     0  0
  5 10  1  0     0  0
  6 11  1  0     0  0
  7 12  1  0     0  0
  7 13  2  0     0  0
  8 14  2  0     0  0
  9 12  1  0     0  0
 11 12  2  0     0  0
 13 14  1  0     0  0
 15 16  1  0     0  0
 16 17  1  0     0  0
 16 18  1  0     0  0
 17 19  1  0     0  0
 18 20  1  0     0  0
 19 21  1  0     0  0
 20 21  1  0     0  0
M  END
> <Compound >
14

> <standard_type>
pIC50

> <# Confs.>
25

> <canonical_smiles>
NC1=NC(N)=C(C2=CC=CS2)C(OCC3CCCCC3)=N1

> <standard_relation>
=

> <predicted_activity_value>
4.49815642831505

> <actual_activity_value>
4.259637310505756

> <Publication ID>
nan

> <standard_units>
nM

> hash
6423501613014595294

$$$$
14_
XXILIB    08252103513D 0   0.00000     0.00000

 21 23  0     1  0            999 V2000
    0.8156    1.4730   -3.2556 S   0  0  0  0  0  2           0  0  0
    0.0000   -0.0000    0.0000 O   0  0  0  0  0  2           0  0  0
    2.0467    0.0000    1.1796 N   0  0  0  0  0  3           0  0  0
    4.0967   -0.0012   -0.0242 N   0  0  0  0  0  3           0  0  0
    4.0942    0.0014    2.3257 N   0  0  0  0  0  3           0  0  0
    4.1704    0.0202   -2.3758 N   0  0  0  0  0  3           0  0  0
    1.2698   -0.0040   -2.4926 C   0  0  0  0  0  4           0  0  0
    0.0318    0.6640   -4.5380 C   0  0  0  0  0  4           0  0  0
    1.3861    0.0000    0.0000 C   0  0  0  0  0  4           0  0  0
    3.3935    0.0004    1.1304 C   0  0  0  0  0  4           0  0  0
    3.4213   -0.0195   -1.2008 C   0  0  0  0  0  4           0  0  0
    2.0264   -0.0037   -1.2357 C   0  0  0  0  0  4           0  0  0
    0.8202   -1.0858   -3.2336 C   0  0  0  0  0  4           0  0  0
    0.1070   -0.7021   -4.4063 C   0  0  0  0  0  4           0  0  0
   -0.6156   -0.0000    1.2897 C   0  0  0  0  0  4           0  0  0
   -2.1307   -0.0000    1.1068 C   0  0  1  0  0  4           0  0  0
   -2.6044    1.2385    0.3293 C   0  0  0  0  0  4           0  0  0
   -2.6125   -1.2828    0.4103 C   0  0  0  0  0  4           0  0  0
   -4.1203    1.2373    0.1407 C   0  0  0  0  0  4           0  0  0
   -4.1281   -1.2851    0.2211 C   0  0  0  0  0  4           0  0  0
   -4.6026   -0.0452   -0.5302 C   0  0  0  0  0  4           0  0  0
  1  7  1  0     0  0
  1  8  1  0     0  0
  2  9  1  0     0  0
  2 15  1  0     0  0
  3  9  2  0     0  0
  3 10  1  0     0  0
  4 10  2  0     0  0
  4 11  1  0     0  0
  5 10  1  0     0  0
  6 11  1  0     0  0
  7 12  1  0     0  0
  7 13  2  0     0  0
  8 14  2  0     0  0
  9 12  1  0     0  0
 11 12  2  0     0  0
 13 14  1  0     0  0
 15 16  1  0     0  0
 16 17  1  0     0  0
 16 18  1  0     0  0
 17 19  1  0     0  0
 18 20  1  0     0  0
 19 21  1  0     0  0
 20 21  1  0     0  0
M  END
> <Compound >
14

> <standard_type>
pIC50

> <# Confs.>
25

> <canonical_smiles>
NC1=NC(N)=C(C2=CC=CS2)C(OCC3CCCCC3)=N1

> <standard_relation>
=

> <predicted_activity_value>
4.49815642831505

> <actual_activity_value>
4.259637310505756

> <Publication ID>
nan

> <standard_units>
nM

> hash
6423501613014595294

$$$$
14_
XXILIB    08252103513D 0   0.00000     0.00000

 21 23  0     1  0            999 V2000
    0.8156    1.4730   -3.2556 S   0  0  0  0  0  2           0  0  0
    0.0000   -0.0000    0.0000 O   0  0  0  0  0  2           0  0  0
    2.0467    0.0000    1.1796 N   0  0  0  0  0  3           0  0  0
    4.0967   -0.0012   -0.0242 N   0  0  0  0  0  3           0  0  0
    4.0942    0.0014    2.3257 N   0  0  0  0  0  3           0  0  0
    4.1704    0.0202   -2.3758 N   0  0  0  0  0  3           0  0  0
    1.2698   -0.0040   -2.4926 C   0  0  0  0  0  4           0  0  0
    0.0318    0.6640   -4.5380 C   0  0  0  0  0  4           0  0  0
    1.3861    0.0000    0.0000 C   0  0  0  0  0  4           0  0  0
    3.3935    0.0004    1.1304 C   0  0  0  0  0  4           0  0  0
    3.4213   -0.0195   -1.2008 C   0  0  0  0  0  4           0  0  0
    2.0264   -0.0037   -1.2357 C   0  0  0  0  0  4           0  0  0
    0.8202   -1.0858   -3.2336 C   0  0  0  0  0  4           0  0  0
    0.1070   -0.7021   -4.4063 C   0  0  0  0  0  4           0  0  0
   -0.6156   -0.0000    1.2897 C   0  0  0  0  0  4           0  0  0
   -2.1307   -0.0000    1.1068 C   0  0  1  0  0  4           0  0  0
   -2.6044   -1.2385    0.3293 C   0  0  0  0  0  4           0  0  0
   -2.8596    0.0927    2.4569 C   0  0  0  0  0  4           0  0  0
   -4.1215   -1.2427    0.1500 C   0  0  0  0  0  4           0  0  0
   -4.3766    0.0885    2.2788 C   0  0  0  0  0  4           0  0  0
   -4.8462   -1.1282    1.4875 C   0  0  0  0  0  4           0  0  0
  1  7  1  0     0  0
  1  8  1  0     0  0
  2  9  1  0     0  0
  2 15  1  0     0  0
  3  9  2  0     0  0
  3 10  1  0     0  0
  4 10  2  0     0  0
  4 11  1  0     0  0
  5 10  1  0     0  0
  6 11  1  0     0  0
  7 12  1  0     0  0
  7 13  2  0     0  0
  8 14  2  0     0  0
  9 12  1  0     0  0
 11 12  2  0     0  0
 13 14  1  0     0  0
 15 16  1  0     0  0
 16 17  1  0     0  0
 16 18  1  0     0  0
 17 19  1  0     0  0
 18 20  1  0     0  0
 19 21  1  0     0  0
 20 21  1  0     0  0
M  END
> <Compound >
14

> <standard_type>
pIC50

> <# Confs.>
25

> <canonical_smiles>
NC1=NC(N)=C(C2=CC=CS2)C(OCC3CCCCC3)=N1

> <standard_relation>
=

> <predicted_activity_value>
4.49815642831505

> <actual_activity_value>
4.259637310505756

> <Publication ID>
nan

> <standard_units>
nM

> hash
6423501613014595294

$$$$
14_
XXILIB    08252103513D 0   0.00000     0.00000

 21 23  0     1  0            999 V2000
    0.8156    1.4730   -3.2556 S   0  0  0  0  0  2           0  0  0
    0.0000   -0.0000    0.0000 O   0  0  0  0  0  2           0  0  0
    2.0467    0.0000    1.1796 N   0  0  0  0  0  3           0  0  0
    4.0967   -0.0012   -0.0242 N   0  0  0  0  0  3           0  0  0
    4.0942    0.0014    2.3257 N   0  0  0  0  0  3           0  0  0
    4.1704    0.0202   -2.3758 N   0  0  0  0  0  3           0  0  0
    1.2698   -0.0040   -2.4926 C   0  0  0  0  0  4           0  0  0
    0.0318    0.6640   -4.5380 C   0  0  0  0  0  4           0  0  0
    1.3861    0.0000    0.0000 C   0  0  0  0  0  4           0  0  0
    3.3935    0.0004    1.1304 C   0  0  0  0  0  4           0  0  0
    3.4213   -0.0195   -1.2008 C   0  0  0  0  0  4           0  0  0
    2.0264   -0.0037   -1.2357 C   0  0  0  0  0  4           0  0  0
    0.8202   -1.0858   -3.2336 C   0  0  0  0  0  4           0  0  0
    0.1070   -0.7021   -4.4063 C   0  0  0  0  0  4           0  0  0
   -0.6156   -0.0000    1.2897 C   0  0  0  0  0  4           0  0  0
   -2.1307   -0.0000    1.1068 C   0  0  1  0  0  4           0  0  0
   -2.8616   -0.0000    2.4591 C   0  0  0  0  0  4           0  0  0
   -2.5932    1.1902    0.2510 C   0  0  0  0  0  4           0  0  0
   -4.3784    0.0054    2.2775 C   0  0  0  0  0  4           0  0  0
   -4.1098    1.1966    0.0690 C   0  0  0  0  0  4           0  0  0
   -4.8368    1.1734    1.4098 C   0  0  0  0  0  4           0  0  0
  1  7  1  0     0  0
  1  8  1  0     0  0
  2  9  1  0     0  0
  2 15  1  0     0  0
  3  9  2  0     0  0
  3 10  1  0     0  0
  4 10  2  0     0  0
  4 11  1  0     0  0
  5 10  1  0     0  0
  6 11  1  0     0  0
  7 12  1  0     0  0
  7 13  2  0     0  0
  8 14  2  0     0  0
  9 12  1  0     0  0
 11 12  2  0     0  0
 13 14  1  0     0  0
 15 16  1  0     0  0
 16 17  1  0     0  0
 16 18  1  0     0  0
 17 19  1  0     0  0
 18 20  1  0     0  0
 19 21  1  0     0  0
 20 21  1  0     0  0
M  END
> <Compound >
14

> <standard_type>
pIC50

> <# Confs.>
25

> <canonical_smiles>
NC1=NC(N)=C(C2=CC=CS2)C(OCC3CCCCC3)=N1

> <standard_relation>
=

> <predicted_activity_value>
4.49815642831505

> <actual_activity_value>
4.259637310505756

> <Publication ID>
nan

> <standard_units>
nM

> hash
6423501613014595294

$$$$
14_
XXILIB    08252103513D 0   0.00000     0.00000

 21 23  0     1  0            999 V2000
    0.8084   -1.4814   -3.2505 S   0  0  0  0  0  2           0  0  0
    0.0000   -0.0000    0.0000 O   0  0  0  0  0  2           0  0  0
    2.0467    0.0000    1.1796 N   0  0  0  0  0  3           0  0  0
    4.0967   -0.0012   -0.0242 N   0  0  0  0  0  3           0  0  0
    4.0942    0.0014    2.3257 N   0  0  0  0  0  3           0  0  0
    4.1704    0.0202   -2.3758 N   0  0  0  0  0  3           0  0  0
    1.2698   -0.0040   -2.4926 C   0  0  0  0  0  4           0  0  0
    0.0418   -0.6731   -4.5437 C   0  0  0  0  0  4           0  0  0
    1.3861    0.0000    0.0000 C   0  0  0  0  0  4           0  0  0
    3.3935    0.0004    1.1304 C   0  0  0  0  0  4           0  0  0
    3.4213   -0.0195   -1.2008 C   0  0  0  0  0  4           0  0  0
    2.0264   -0.0037   -1.2357 C   0  0  0  0  0  4           0  0  0
    0.8251    1.0774   -3.2371 C   0  0  0  0  0  4           0  0  0
    0.1227    0.6930   -4.4160 C   0  0  0  0  0  4           0  0  0
   -0.6156   -0.0000    1.2897 C   0  0  0  0  0  4           0  0  0
   -2.1307   -0.0000    1.1068 C   0  0  1  0  0  4           0  0  0
   -2.6307   -1.2315    0.3302 C   0  0  0  0  0  4           0  0  0
   -2.8574    0.1135    2.4553 C   0  0  0  0  0  4           0  0  0
   -2.5666   -2.5194    1.1502 C   0  0  0  0  0  4           0  0  0
   -2.7873   -1.1719    3.2779 C   0  0  0  0  0  4           0  0  0
   -3.2922   -2.3731    2.4844 C   0  0  0  0  0  4           0  0  0
  1  7  1  0     0  0
  1  8  1  0     0  0
  2  9  1  0     0  0
  2 15  1  0     0  0
  3  9  2  0     0  0
  3 10  1  0     0  0
  4 10  2  0     0  0
  4 11  1  0     0  0
  5 10  1  0     0  0
  6 11  1  0     0  0
  7 12  1  0     0  0
  7 13  2  0     0  0
  8 14  2  0     0  0
  9 12  1  0     0  0
 11 12  2  0     0  0
 13 14  1  0     0  0
 15 16  1  0     0  0
 16 17  1  0     0  0
 16 18  1  0     0  0
 17 19  1  0     0  0
 18 20  1  0     0  0
 19 21  1  0     0  0
 20 21  1  0     0  0
M  END
> <Compound >
14

> <standard_type>
pIC50

> <# Confs.>
25

> <canonical_smiles>
NC1=NC(N)=C(C2=CC=CS2)C(OCC3CCCCC3)=N1

> <standard_relation>
=

> <predicted_activity_value>
4.49815642831505

> <actual_activity_value>
4.259637310505756

> <Publication ID>
nan

> <standard_units>
nM

> hash
6423501613014595294

$$$$
14_
XXILIB    08252103513D 0   0.00000     0.00000

 21 23  0     1  0            999 V2000
    0.8084   -1.4814   -3.2505 S   0  0  0  0  0  2           0  0  0
    0.0000   -0.0000    0.0000 O   0  0  0  0  0  2           0  0  0
    2.0467    0.0000    1.1796 N   0  0  0  0  0  3           0  0  0
    4.0967   -0.0012   -0.0242 N   0  0  0  0  0  3           0  0  0
    4.0942    0.0014    2.3257 N   0  0  0  0  0  3           0  0  0
    4.1704    0.0202   -2.3758 N   0  0  0  0  0  3           0  0  0
    1.2698   -0.0040   -2.4926 C   0  0  0  0  0  4           0  0  0
    0.0418   -0.6731   -4.5437 C   0  0  0  0  0  4           0  0  0
    1.3861    0.0000    0.0000 C   0  0  0  0  0  4           0  0  0
    3.3935    0.0004    1.1304 C   0  0  0  0  0  4           0  0  0
    3.4213   -0.0195   -1.2008 C   0  0  0  0  0  4           0  0  0
    2.0264   -0.0037   -1.2357 C   0  0  0  0  0  4           0  0  0
    0.8251    1.0774   -3.2371 C   0  0  0  0  0  4           0  0  0
    0.1227    0.6930   -4.4160 C   0  0  0  0  0  4           0  0  0
   -0.6156   -0.0000    1.2897 C   0  0  0  0  0  4           0  0  0
   -2.1307   -0.0000    1.1068 C   0  0  1  0  0  4           0  0  0
   -2.8864   -0.0000    2.4478 C   0  0  0  0  0  4           0  0  0
   -2.5892    1.1781    0.2343 C   0  0  0  0  0  4           0  0  0
   -2.8110    1.3423    3.1743 C   0  0  0  0  0  4           0  0  0
   -2.5072    2.5208    0.9584 C   0  0  0  0  0  4           0  0  0
   -3.2676    2.4916    2.2806 C   0  0  0  0  0  4           0  0  0
  1  7  1  0     0  0
  1  8  1  0     0  0
  2  9  1  0     0  0
  2 15  1  0     0  0
  3  9  2  0     0  0
  3 10  1  0     0  0
  4 10  2  0     0  0
  4 11  1  0     0  0
  5 10  1  0     0  0
  6 11  1  0     0  0
  7 12  1  0     0  0
  7 13  2  0     0  0
  8 14  2  0     0  0
  9 12  1  0     0  0
 11 12  2  0     0  0
 13 14  1  0     0  0
 15 16  1  0     0  0
 16 17  1  0     0  0
 16 18  1  0     0  0
 17 19  1  0     0  0
 18 20  1  0     0  0
 19 21  1  0     0  0
 20 21  1  0     0  0
M  END
> <Compound >
14

> <standard_type>
pIC50

> <# Confs.>
25

> <canonical_smiles>
NC1=NC(N)=C(C2=CC=CS2)C(OCC3CCCCC3)=N1

> <standard_relation>
=

> <predicted_activity_value>
4.49815642831505

> <actual_activity_value>
4.259637310505756

> <Publication ID>
nan

> <standard_units>
nM

> hash
6423501613014595294

$$$$
14_
XXILIB    08252103513D 0   0.00000     0.00000

 21 23  0     1  0            999 V2000
    0.8156    1.4730   -3.2556 S   0  0  0  0  0  2           0  0  0
    0.0000   -0.0000    0.0000 O   0  0  0  0  0  2           0  0  0
    2.0467    0.0000    1.1796 N   0  0  0  0  0  3           0  0  0
    4.0967   -0.0012   -0.0242 N   0  0  0  0  0  3           0  0  0
    4.0942    0.0014    2.3257 N   0  0  0  0  0  3           0  0  0
    4.1704    0.0202   -2.3758 N   0  0  0  0  0  3           0  0  0
    1.2698   -0.0040   -2.4926 C   0  0  0  0  0  4           0  0  0
    0.0318    0.6640   -4.5380 C   0  0  0  0  0  4           0  0  0
    1.3861    0.0000    0.0000 C   0  0  0  0  0  4           0  0  0
    3.3935    0.0004    1.1304 C   0  0  0  0  0  4           0  0  0
    3.4213   -0.0195   -1.2008 C   0  0  0  0  0  4           0  0  0
    2.0264   -0.0037   -1.2357 C   0  0  0  0  0  4           0  0  0
    0.8202   -1.0858   -3.2336 C   0  0  0  0  0  4           0  0  0
    0.1070   -0.7021   -4.4063 C   0  0  0  0  0  4           0  0  0
   -0.6156   -0.0000    1.2897 C   0  0  0  0  0  4           0  0  0
   -2.1307   -0.0000    1.1068 C   0  0  1  0  0  4           0  0  0
   -2.6307   -1.2315    0.3302 C   0  0  0  0  0  4           0  0  0
   -2.8574    0.1135    2.4553 C   0  0  0  0  0  4           0  0  0
   -2.5666   -2.5194    1.1502 C   0  0  0  0  0  4           0  0  0
   -2.7873   -1.1719    3.2779 C   0  0  0  0  0  4           0  0  0
   -3.2922   -2.3731    2.4844 C   0  0  0  0  0  4           0  0  0
  1  7  1  0     0  0
  1  8  1  0     0  0
  2  9  1  0     0  0
  2 15  1  0     0  0
  3  9  2  0     0  0
  3 10  1  0     0  0
  4 10  2  0     0  0
  4 11  1  0     0  0
  5 10  1  0     0  0
  6 11  1  0     0  0
  7 12  1  0     0  0
  7 13  2  0     0  0
  8 14  2  0     0  0
  9 12  1  0     0  0
 11 12  2  0     0  0
 13 14  1  0     0  0
 15 16  1  0     0  0
 16 17  1  0     0  0
 16 18  1  0     0  0
 17 19  1  0     0  0
 18 20  1  0     0  0
 19 21  1  0     0  0
 20 21  1  0     0  0
M  END
> <Compound >
14

> <standard_type>
pIC50

> <# Confs.>
25

> <canonical_smiles>
NC1=NC(N)=C(C2=CC=CS2)C(OCC3CCCCC3)=N1

> <standard_relation>
=

> <predicted_activity_value>
4.49815642831505

> <actual_activity_value>
4.259637310505756

> <Publication ID>
nan

> <standard_units>
nM

> hash
6423501613014595294

$$$$
14_
XXILIB    08252103513D 0   0.00000     0.00000

 21 23  0     1  0            999 V2000
    0.8156    1.4730   -3.2556 S   0  0  0  0  0  2           0  0  0
    0.0000   -0.0000    0.0000 O   0  0  0  0  0  2           0  0  0
    2.0467    0.0000    1.1796 N   0  0  0  0  0  3           0  0  0
    4.0967   -0.0012   -0.0242 N   0  0  0  0  0  3           0  0  0
    4.0942    0.0014    2.3257 N   0  0  0  0  0  3           0  0  0
    4.1704    0.0202   -2.3758 N   0  0  0  0  0  3           0  0  0
    1.2698   -0.0040   -2.4926 C   0  0  0  0  0  4           0  0  0
    0.0318    0.6640   -4.5380 C   0  0  0  0  0  4           0  0  0
    1.3861    0.0000    0.0000 C   0  0  0  0  0  4           0  0  0
    3.3935    0.0004    1.1304 C   0  0  0  0  0  4           0  0  0
    3.4213   -0.0195   -1.2008 C   0  0  0  0  0  4           0  0  0
    2.0264   -0.0037   -1.2357 C   0  0  0  0  0  4           0  0  0
    0.8202   -1.0858   -3.2336 C   0  0  0  0  0  4           0  0  0
    0.1070   -0.7021   -4.4063 C   0  0  0  0  0  4           0  0  0
   -0.6156   -0.0000    1.2897 C   0  0  0  0  0  4           0  0  0
   -2.1307   -0.0000    1.1068 C   0  0  1  0  0  4           0  0  0
   -2.8864   -0.0000    2.4478 C   0  0  0  0  0  4           0  0  0
   -2.5892    1.1781    0.2343 C   0  0  0  0  0  4           0  0  0
   -2.8110    1.3423    3.1743 C   0  0  0  0  0  4           0  0  0
   -2.5072    2.5208    0.9584 C   0  0  0  0  0  4           0  0  0
   -3.2676    2.4916    2.2806 C   0  0  0  0  0  4           0  0  0
  1  7  1  0     0  0
  1  8  1  0     0  0
  2  9  1  0     0  0
  2 15  1  0     0  0
  3  9  2  0     0  0
  3 10  1  0     0  0
  4 10  2  0     0  0
  4 11  1  0     0  0
  5 10  1  0     0  0
  6 11  1  0     0  0
  7 12  1  0     0  0
  7 13  2  0     0  0
  8 14  2  0     0  0
  9 12  1  0     0  0
 11 12  2  0     0  0
 13 14  1  0     0  0
 15 16  1  0     0  0
 16 17  1  0     0  0
 16 18  1  0     0  0
 17 19  1  0     0  0
 18 20  1  0     0  0
 19 21  1  0     0  0
 20 21  1  0     0  0
M  END
> <Compound >
14

> <standard_type>
pIC50

> <# Confs.>
25

> <canonical_smiles>
NC1=NC(N)=C(C2=CC=CS2)C(OCC3CCCCC3)=N1

> <standard_relation>
=

> <predicted_activity_value>
4.49815642831505

> <actual_activity_value>
4.259637310505756

> <Publication ID>
nan

> <standard_units>
nM

> hash
6423501613014595294

$$$$
14_
XXILIB    08252103513D 0   0.00000     0.00000

 21 23  0     1  0            999 V2000
    0.1761   -2.5446   -1.8447 S   0  0  0  0  0  2           0  0  0
    0.0000   -0.0000    0.0000 O   0  0  0  0  0  2           0  0  0
    2.0467    0.5898    1.0215 N   0  0  0  0  0  3           0  0  0
    4.0967   -0.0132   -0.0203 N   0  0  0  0  0  3           0  0  0
    4.0942    1.1641    2.0135 N   0  0  0  0  0  3           0  0  0
    4.1704   -1.1703   -2.0676 N   0  0  0  0  0  3           0  0  0
    1.2698   -1.2498   -2.1566 C   0  0  0  0  0  4           0  0  0
   -0.2453   -2.6933   -3.4921 C   0  0  0  0  0  4           0  0  0
    1.3861    0.0000    0.0000 C   0  0  0  0  0  4           0  0  0
    3.3935    0.5656    0.9788 C   0  0  0  0  0  4           0  0  0
    3.4213   -0.6173   -1.0302 C   0  0  0  0  0  4           0  0  0
    2.0264   -0.6211   -1.0683 C   0  0  0  0  0  4           0  0  0
    1.2881   -0.9517   -3.5103 C   0  0  0  0  0  4           0  0  0
    0.4204   -1.7824   -4.2771 C   0  0  0  0  0  4           0  0  0
   -0.6156   -0.0000    1.2897 C   0  0  0  0  0  4           0  0  0
   -1.9559   -0.7231    1.1902 C   0  0  1  0  0  4           0  0  0
   -2.6774   -0.7617    2.5470 C   0  0  0  0  0  4           0  0  0
   -2.8604   -0.0854    0.1235 C   0  0  0  0  0  4           0  0  0
   -4.0217   -1.4805    2.4478 C   0  0  0  0  0  4           0  0  0
   -4.2049   -0.8033    0.0236 C   0  0  0  0  0  4           0  0  0
   -4.9120   -0.8628    1.3740 C   0  0  0  0  0  4           0  0  0
  1  7  1  0     0  0
  1  8  1  0     0  0
  2  9  1  0     0  0
  2 15  1  0     0  0
  3  9  2  0     0  0
  3 10  1  0     0  0
  4 10  2  0     0  0
  4 11  1  0     0  0
  5 10  1  0     0  0
  6 11  1  0     0  0
  7 12  1  0     0  0
  7 13  2  0     0  0
  8 14  2  0     0  0
  9 12  1  0     0  0
 11 12  2  0     0  0
 13 14  1  0     0  0
 15 16  1  0     0  0
 16 17  1  0     0  0
 16 18  1  0     0  0
 17 19  1  0     0  0
 18 20  1  0     0  0
 19 21  1  0     0  0
 20 21  1  0     0  0
M  END
> <Compound >
14

> <standard_type>
pIC50

> <# Confs.>
25

> <canonical_smiles>
NC1=NC(N)=C(C2=CC=CS2)C(OCC3CCCCC3)=N1

> <standard_relation>
=

> <predicted_activity_value>
4.49815642831505

> <actual_activity_value>
4.259637310505756

> <Publication ID>
nan

> <standard_units>
nM

> hash
6423501613014595294

$$$$
14_
XXILIB    08252103513D 0   0.00000     0.00000

 21 23  0     1  0            999 V2000
    0.1761   -1.2813   -2.8699 S   0  0  0  0  0  2           0  0  0
    0.0000   -0.0000    0.0000 O   0  0  0  0  0  2           0  0  0
    2.0467    0.0000    1.1796 N   0  0  0  0  0  3           0  0  0
    4.0967   -0.0012   -0.0242 N   0  0  0  0  0  3           0  0  0
    4.0942    0.0014    2.3257 N   0  0  0  0  0  3           0  0  0
    4.1704    0.0202   -2.3758 N   0  0  0  0  0  3           0  0  0
    1.2698   -0.0040   -2.4926 C   0  0  0  0  0  4           0  0  0
   -0.2453   -0.5864   -4.3709 C   0  0  0  0  0  4           0  0  0
    1.3861    0.0000    0.0000 C   0  0  0  0  0  4           0  0  0
    3.3935    0.0004    1.1304 C   0  0  0  0  0  4           0  0  0
    3.4213   -0.0195   -1.2008 C   0  0  0  0  0  4           0  0  0
    2.0264   -0.0037   -1.2357 C   0  0  0  0  0  4           0  0  0
    1.2881    0.9310   -3.5158 C   0  0  0  0  0  4           0  0  0
    0.4204    0.5949   -4.5953 C   0  0  0  0  0  4           0  0  0
   -0.6156   -0.0000    1.2897 C   0  0  0  0  0  4           0  0  0
   -1.9559   -0.7231    1.1902 C   0  0  1  0  0  4           0  0  0
   -2.8963   -0.0317    0.1900 C   0  0  0  0  0  4           0  0  0
   -1.7699   -2.2014    0.8125 C   0  0  0  0  0  4           0  0  0
   -4.2364   -0.7574    0.0853 C   0  0  0  0  0  4           0  0  0
   -3.1093   -2.9280    0.7074 C   0  0  0  0  0  4           0  0  0
   -4.0523   -2.2302   -0.2676 C   0  0  0  0  0  4           0  0  0
  1  7  1  0     0  0
  1  8  1  0     0  0
  2  9  1  0     0  0
  2 15  1  0     0  0
  3  9  2  0     0  0
  3 10  1  0     0  0
  4 10  2  0     0  0
  4 11  1  0     0  0
  5 10  1  0     0  0
  6 11  1  0     0  0
  7 12  1  0     0  0
  7 13  2  0     0  0
  8 14  2  0     0  0
  9 12  1  0     0  0
 11 12  2  0     0  0
 13 14  1  0     0  0
 15 16  1  0     0  0
 16 17  1  0     0  0
 16 18  1  0     0  0
 17 19  1  0     0  0
 18 20  1  0     0  0
 19 21  1  0     0  0
 20 21  1  0     0  0
M  END
> <Compound >
14

> <standard_type>
pIC50

> <# Confs.>
25

> <canonical_smiles>
NC1=NC(N)=C(C2=CC=CS2)C(OCC3CCCCC3)=N1

> <standard_relation>
=

> <predicted_activity_value>
4.49815642831505

> <actual_activity_value>
4.259637310505756

> <Publication ID>
nan

> <standard_units>
nM

> hash
6423501613014595294

$$$$
14_
XXILIB    08252103513D 0   0.00000     0.00000

 21 23  0     1  0            999 V2000
    0.8084   -1.4814   -3.2505 S   0  0  0  0  0  2           0  0  0
    0.0000    0.0000   -0.0000 O   0  0  0  0  0  2           0  0  0
    2.0467    0.0000    1.1796 N   0  0  0  0  0  3           0  0  0
    4.0967   -0.0012   -0.0242 N   0  0  0  0  0  3           0  0  0
    4.0942    0.0014    2.3257 N   0  0  0  0  0  3           0  0  0
    4.1704    0.0202   -2.3758 N   0  0  0  0  0  3           0  0  0
    1.2698   -0.0040   -2.4926 C   0  0  0  0  0  4           0  0  0
    0.0418   -0.6731   -4.5437 C   0  0  0  0  0  4           0  0  0
    1.3861    0.0000    0.0000 C   0  0  0  0  0  4           0  0  0
    3.3935    0.0004    1.1304 C   0  0  0  0  0  4           0  0  0
    3.4213   -0.0195   -1.2008 C   0  0  0  0  0  4           0  0  0
    2.0264   -0.0037   -1.2357 C   0  0  0  0  0  4           0  0  0
    0.8251    1.0774   -3.2371 C   0  0  0  0  0  4           0  0  0
    0.1227    0.6930   -4.4160 C   0  0  0  0  0  4           0  0  0
   -0.6156    0.0000    1.2897 C   0  0  0  0  0  4           0  0  0
   -0.8256    1.4462    1.7297 C   0  0  1  0  0  4           0  0  0
   -1.7290    2.2086    0.7471 C   0  0  0  0  0  4           0  0  0
   -1.4020    1.5224    3.1526 C   0  0  0  0  0  4           0  0  0
   -1.9445    3.6549    1.1890 C   0  0  0  0  0  4           0  0  0
   -1.6180    2.9682    3.5954 C   0  0  0  0  0  4           0  0  0
   -2.4956    3.7329    2.6094 C   0  0  0  0  0  4           0  0  0
  1  7  1  0     0  0
  1  8  1  0     0  0
  2  9  1  0     0  0
  2 15  1  0     0  0
  3  9  2  0     0  0
  3 10  1  0     0  0
  4 10  2  0     0  0
  4 11  1  0     0  0
  5 10  1  0     0  0
  6 11  1  0     0  0
  7 12  1  0     0  0
  7 13  2  0     0  0
  8 14  2  0     0  0
  9 12  1  0     0  0
 11 12  2  0     0  0
 13 14  1  0     0  0
 15 16  1  0     0  0
 16 17  1  0     0  0
 16 18  1  0     0  0
 17 19  1  0     0  0
 18 20  1  0     0  0
 19 21  1  0     0  0
 20 21  1  0     0  0
M  END
> <Compound >
14

> <standard_type>
pIC50

> <# Confs.>
25

> <canonical_smiles>
NC1=NC(N)=C(C2=CC=CS2)C(OCC3CCCCC3)=N1

> <standard_relation>
=

> <predicted_activity_value>
4.49815642831505

> <actual_activity_value>
4.259637310505756

> <Publication ID>
nan

> <standard_units>
nM

> hash
6423501613014595294

$$$$
14_
XXILIB    08252103513D 0   0.00000     0.00000

 21 23  0     1  0            999 V2000
    0.8084   -1.4814   -3.2505 S   0  0  0  0  0  2           0  0  0
    0.0000    0.0000    0.0000 O   0  0  0  0  0  2           0  0  0
    2.0467    0.0000    1.1796 N   0  0  0  0  0  3           0  0  0
    4.0967   -0.0012   -0.0242 N   0  0  0  0  0  3           0  0  0
    4.0942    0.0014    2.3257 N   0  0  0  0  0  3           0  0  0
    4.1704    0.0202   -2.3758 N   0  0  0  0  0  3           0  0  0
    1.2698   -0.0040   -2.4926 C   0  0  0  0  0  4           0  0  0
    0.0418   -0.6731   -4.5437 C   0  0  0  0  0  4           0  0  0
    1.3861    0.0000    0.0000 C   0  0  0  0  0  4           0  0  0
    3.3935    0.0004    1.1304 C   0  0  0  0  0  4           0  0  0
    3.4213   -0.0195   -1.2008 C   0  0  0  0  0  4           0  0  0
    2.0264   -0.0037   -1.2357 C   0  0  0  0  0  4           0  0  0
    0.8251    1.0774   -3.2371 C   0  0  0  0  0  4           0  0  0
    0.1227    0.6930   -4.4160 C   0  0  0  0  0  4           0  0  0
   -0.6156    0.0000    1.2897 C   0  0  0  0  0  4           0  0  0
   -0.8256   -1.4462    1.7297 C   0  0  1  0  0  4           0  0  0
   -1.4869   -1.5233    3.1152 C   0  0  0  0  0  4           0  0  0
   -1.6528   -2.2322    0.6999 C   0  0  0  0  0  4           0  0  0
   -1.7026   -2.9703    3.5547 C   0  0  0  0  0  4           0  0  0
   -1.8693   -3.6792    1.1384 C   0  0  0  0  0  4           0  0  0
   -2.5044   -3.7579    2.5231 C   0  0  0  0  0  4           0  0  0
  1  7  1  0     0  0
  1  8  1  0     0  0
  2  9  1  0     0  0
  2 15  1  0     0  0
  3  9  2  0     0  0
  3 10  1  0     0  0
  4 10  2  0     0  0
  4 11  1  0     0  0
  5 10  1  0     0  0
  6 11  1  0     0  0
  7 12  1  0     0  0
  7 13  2  0     0  0
  8 14  2  0     0  0
  9 12  1  0     0  0
 11 12  2  0     0  0
 13 14  1  0     0  0
 15 16  1  0     0  0
 16 17  1  0     0  0
 16 18  1  0     0  0
 17 19  1  0     0  0
 18 20  1  0     0  0
 19 21  1  0     0  0
 20 21  1  0     0  0
M  END
> <Compound >
14

> <standard_type>
pIC50

> <# Confs.>
25

> <canonical_smiles>
NC1=NC(N)=C(C2=CC=CS2)C(OCC3CCCCC3)=N1

> <standard_relation>
=

> <predicted_activity_value>
4.49815642831505

> <actual_activity_value>
4.259637310505756

> <Publication ID>
nan

> <standard_units>
nM

> hash
6423501613014595294

$$$$
14_
XXILIB    08252103513D 0   0.00000     0.00000

 21 23  0     1  0            999 V2000
    0.8084   -1.4814   -3.2505 S   0  0  0  0  0  2           0  0  0
    0.0000   -0.0000    0.0000 O   0  0  0  0  0  2           0  0  0
    2.0467    0.0000    1.1796 N   0  0  0  0  0  3           0  0  0
    4.0967   -0.0012   -0.0242 N   0  0  0  0  0  3           0  0  0
    4.0942    0.0014    2.3257 N   0  0  0  0  0  3           0  0  0
    4.1704    0.0202   -2.3758 N   0  0  0  0  0  3           0  0  0
    1.2698   -0.0040   -2.4926 C   0  0  0  0  0  4           0  0  0
    0.0418   -0.6731   -4.5437 C   0  0  0  0  0  4           0  0  0
    1.3861    0.0000    0.0000 C   0  0  0  0  0  4           0  0  0
    3.3935    0.0004    1.1304 C   0  0  0  0  0  4           0  0  0
    3.4213   -0.0195   -1.2008 C   0  0  0  0  0  4           0  0  0
    2.0264   -0.0037   -1.2357 C   0  0  0  0  0  4           0  0  0
    0.8251    1.0774   -3.2371 C   0  0  0  0  0  4           0  0  0
    0.1227    0.6930   -4.4160 C   0  0  0  0  0  4           0  0  0
   -0.6156   -0.0000    1.2897 C   0  0  0  0  0  4           0  0  0
   -2.1307   -0.0000    1.1068 C   0  0  1  0  0  4           0  0  0
   -2.6413    1.2268    0.3317 C   0  0  0  0  0  4           0  0  0
   -2.6611   -1.3078    0.4948 C   0  0  0  0  0  4           0  0  0
   -2.5011    1.1192   -1.1847 C   0  0  0  0  0  4           0  0  0
   -2.5202   -1.3975   -1.0227 C   0  0  0  0  0  4           0  0  0
   -3.1046   -0.1742   -1.7181 C   0  0  0  0  0  4           0  0  0
  1  7  1  0     0  0
  1  8  1  0     0  0
  2  9  1  0     0  0
  2 15  1  0     0  0
  3  9  2  0     0  0
  3 10  1  0     0  0
  4 10  2  0     0  0
  4 11  1  0     0  0
  5 10  1  0     0  0
  6 11  1  0     0  0
  7 12  1  0     0  0
  7 13  2  0     0  0
  8 14  2  0     0  0
  9 12  1  0     0  0
 11 12  2  0     0  0
 13 14  1  0     0  0
 15 16  1  0     0  0
 16 17  1  0     0  0
 16 18  1  0     0  0
 17 19  1  0     0  0
 18 20  1  0     0  0
 19 21  1  0     0  0
 20 21  1  0     0  0
M  END
> <Compound >
14

> <standard_type>
pIC50

> <# Confs.>
25

> <canonical_smiles>
NC1=NC(N)=C(C2=CC=CS2)C(OCC3CCCCC3)=N1

> <standard_relation>
=

> <predicted_activity_value>
4.49815642831505

> <actual_activity_value>
4.259637310505756

> <Publication ID>
nan

> <standard_units>
nM

> hash
6423501613014595294

$$$$
14_
XXILIB    08252103513D 0   0.00000     0.00000

 21 23  0     1  0            999 V2000
    0.8156    1.4730   -3.2556 S   0  0  0  0  0  2           0  0  0
    0.0000    0.0000   -0.0000 O   0  0  0  0  0  2           0  0  0
    2.0467    0.0000    1.1796 N   0  0  0  0  0  3           0  0  0
    4.0967   -0.0012   -0.0242 N   0  0  0  0  0  3           0  0  0
    4.0942    0.0014    2.3257 N   0  0  0  0  0  3           0  0  0
    4.1704    0.0202   -2.3758 N   0  0  0  0  0  3           0  0  0
    1.2698   -0.0040   -2.4926 C   0  0  0  0  0  4           0  0  0
    0.0318    0.6640   -4.5380 C   0  0  0  0  0  4           0  0  0
    1.3861    0.0000    0.0000 C   0  0  0  0  0  4           0  0  0
    3.3935    0.0004    1.1304 C   0  0  0  0  0  4           0  0  0
    3.4213   -0.0195   -1.2008 C   0  0  0  0  0  4           0  0  0
    2.0264   -0.0037   -1.2357 C   0  0  0  0  0  4           0  0  0
    0.8202   -1.0858   -3.2336 C   0  0  0  0  0  4           0  0  0
    0.1070   -0.7021   -4.4063 C   0  0  0  0  0  4           0  0  0
   -0.6156    0.0000    1.2897 C   0  0  0  0  0  4           0  0  0
   -0.8256    1.4462    1.7297 C   0  0  1  0  0  4           0  0  0
   -1.7290    2.2086    0.7471 C   0  0  0  0  0  4           0  0  0
   -1.4020    1.5224    3.1526 C   0  0  0  0  0  4           0  0  0
   -1.9445    3.6549    1.1890 C   0  0  0  0  0  4           0  0  0
   -1.6180    2.9682    3.5954 C   0  0  0  0  0  4           0  0  0
   -2.4956    3.7329    2.6094 C   0  0  0  0  0  4           0  0  0
  1  7  1  0     0  0
  1  8  1  0     0  0
  2  9  1  0     0  0
  2 15  1  0     0  0
  3  9  2  0     0  0
  3 10  1  0     0  0
  4 10  2  0     0  0
  4 11  1  0     0  0
  5 10  1  0     0  0
  6 11  1  0     0  0
  7 12  1  0     0  0
  7 13  2  0     0  0
  8 14  2  0     0  0
  9 12  1  0     0  0
 11 12  2  0     0  0
 13 14  1  0     0  0
 15 16  1  0     0  0
 16 17  1  0     0  0
 16 18  1  0     0  0
 17 19  1  0     0  0
 18 20  1  0     0  0
 19 21  1  0     0  0
 20 21  1  0     0  0
M  END
> <Compound >
14

> <standard_type>
pIC50

> <# Confs.>
25

> <canonical_smiles>
NC1=NC(N)=C(C2=CC=CS2)C(OCC3CCCCC3)=N1

> <standard_relation>
=

> <predicted_activity_value>
4.49815642831505

> <actual_activity_value>
4.259637310505756

> <Publication ID>
nan

> <standard_units>
nM

> hash
6423501613014595294

$$$$
14_
XXILIB    08252103513D 0   0.00000     0.00000

 21 23  0     1  0            999 V2000
    0.8084   -2.9082   -2.0743 S   0  0  0  0  0  2           0  0  0
    0.0000    0.0000   -0.0000 O   0  0  0  0  0  2           0  0  0
    2.0467    0.5898    1.0215 N   0  0  0  0  0  3           0  0  0
    4.0967   -0.0132   -0.0203 N   0  0  0  0  0  3           0  0  0
    4.0942    1.1641    2.0135 N   0  0  0  0  0  3           0  0  0
    4.1704   -1.1703   -2.0676 N   0  0  0  0  0  3           0  0  0
    1.2698   -1.2498   -2.1566 C   0  0  0  0  0  4           0  0  0
    0.0418   -2.8548   -3.5984 C   0  0  0  0  0  4           0  0  0
    1.3861    0.0000    0.0000 C   0  0  0  0  0  4           0  0  0
    3.3935    0.5656    0.9788 C   0  0  0  0  0  4           0  0  0
    3.4213   -0.6173   -1.0302 C   0  0  0  0  0  4           0  0  0
    2.0264   -0.6211   -1.0683 C   0  0  0  0  0  4           0  0  0
    0.8251   -0.6855   -3.3421 C   0  0  0  0  0  4           0  0  0
    0.1227   -1.6079   -4.1709 C   0  0  0  0  0  4           0  0  0
   -0.6156   -0.0000    1.2897 C   0  0  0  0  0  4           0  0  0
   -1.9559    0.7231    1.1902 C   0  0  1  0  0  4           0  0  0
   -2.8963    0.0317    0.1900 C   0  0  0  0  0  4           0  0  0
   -2.6337    0.8415    2.5647 C   0  0  0  0  0  4           0  0  0
   -4.2403    0.7513    0.0933 C   0  0  0  0  0  4           0  0  0
   -3.9778    1.5607    2.4691 C   0  0  0  0  0  4           0  0  0
   -4.9040    0.8894    1.4599 C   0  0  0  0  0  4           0  0  0
  1  7  1  0     0  0
  1  8  1  0     0  0
  2  9  1  0     0  0
  2 15  1  0     0  0
  3  9  2  0     0  0
  3 10  1  0     0  0
  4 10  2  0     0  0
  4 11  1  0     0  0
  5 10  1  0     0  0
  6 11  1  0     0  0
  7 12  1  0     0  0
  7 13  2  0     0  0
  8 14  2  0     0  0
  9 12  1  0     0  0
 11 12  2  0     0  0
 13 14  1  0     0  0
 15 16  1  0     0  0
 16 17  1  0     0  0
 16 18  1  0     0  0
 17 19  1  0     0  0
 18 20  1  0     0  0
 19 21  1  0     0  0
 20 21  1  0     0  0
M  END
> <Compound >
14

> <standard_type>
pIC50

> <# Confs.>
25

> <canonical_smiles>
NC1=NC(N)=C(C2=CC=CS2)C(OCC3CCCCC3)=N1

> <standard_relation>
=

> <predicted_activity_value>
4.49815642831505

> <actual_activity_value>
4.259637310505756

> <Publication ID>
nan

> <standard_units>
nM

> hash
6423501613014595294

$$$$
14_
XXILIB    08252103513D 0   0.00000     0.00000

 21 23  0     1  0            999 V2000
    0.8084   -2.9082   -2.0743 S   0  0  0  0  0  2           0  0  0
    0.0000    0.0000   -0.0000 O   0  0  0  0  0  2           0  0  0
    2.0467    0.5898    1.0215 N   0  0  0  0  0  3           0  0  0
    4.0967   -0.0132   -0.0203 N   0  0  0  0  0  3           0  0  0
    4.0942    1.1641    2.0135 N   0  0  0  0  0  3           0  0  0
    4.1704   -1.1703   -2.0676 N   0  0  0  0  0  3           0  0  0
    1.2698   -1.2498   -2.1566 C   0  0  0  0  0  4           0  0  0
    0.0418   -2.8548   -3.5984 C   0  0  0  0  0  4           0  0  0
    1.3861    0.0000    0.0000 C   0  0  0  0  0  4           0  0  0
    3.3935    0.5656    0.9788 C   0  0  0  0  0  4           0  0  0
    3.4213   -0.6173   -1.0302 C   0  0  0  0  0  4           0  0  0
    2.0264   -0.6211   -1.0683 C   0  0  0  0  0  4           0  0  0
    0.8251   -0.6855   -3.3421 C   0  0  0  0  0  4           0  0  0
    0.1227   -1.6079   -4.1709 C   0  0  0  0  0  4           0  0  0
   -0.6156   -0.0000    1.2897 C   0  0  0  0  0  4           0  0  0
   -1.9559    0.7231    1.1902 C   0  0  1  0  0  4           0  0  0
   -1.7785    2.1769    0.7235 C   0  0  0  0  0  4           0  0  0
   -2.9276   -0.0205    0.2599 C   0  0  0  0  0  4           0  0  0
   -3.1198    2.9005    0.6183 C   0  0  0  0  0  4           0  0  0
   -4.2691    0.7023    0.1539 C   0  0  0  0  0  4           0  0  0
   -4.0931    2.1519   -0.2870 C   0  0  0  0  0  4           0  0  0
  1  7  1  0     0  0
  1  8  1  0     0  0
  2  9  1  0     0  0
  2 15  1  0     0  0
  3  9  2  0     0  0
  3 10  1  0     0  0
  4 10  2  0     0  0
  4 11  1  0     0  0
  5 10  1  0     0  0
  6 11  1  0     0  0
  7 12  1  0     0  0
  7 13  2  0     0  0
  8 14  2  0     0  0
  9 12  1  0     0  0
 11 12  2  0     0  0
 13 14  1  0     0  0
 15 16  1  0     0  0
 16 17  1  0     0  0
 16 18  1  0     0  0
 17 19  1  0     0  0
 18 20  1  0     0  0
 19 21  1  0     0  0
 20 21  1  0     0  0
M  END
> <Compound >
14

> <standard_type>
pIC50

> <# Confs.>
25

> <canonical_smiles>
NC1=NC(N)=C(C2=CC=CS2)C(OCC3CCCCC3)=N1

> <standard_relation>
=

> <predicted_activity_value>
4.49815642831505

> <actual_activity_value>
4.259637310505756

> <Publication ID>
nan

> <standard_units>
nM

> hash
6423501613014595294

$$$$
14_
XXILIB    08252103513D 0   0.00000     0.00000

 21 23  0     1  0            999 V2000
    0.1824    2.5433   -1.8506 S   0  0  0  0  0  2           0  0  0
    0.0000    0.0000   -0.0000 O   0  0  0  0  0  2           0  0  0
    2.0467   -0.5898    1.0215 N   0  0  0  0  0  3           0  0  0
    4.0967    0.0110   -0.0216 N   0  0  0  0  0  3           0  0  0
    4.0942   -1.1617    2.0148 N   0  0  0  0  0  3           0  0  0
    4.1704    1.2054   -2.0473 N   0  0  0  0  0  3           0  0  0
    1.2698    1.2428   -2.1607 C   0  0  0  0  0  4           0  0  0
   -0.2539    2.6779   -3.4953 C   0  0  0  0  0  4           0  0  0
    1.3861   -0.0000    0.0000 C   0  0  0  0  0  4           0  0  0
    3.3935   -0.5649    0.9792 C   0  0  0  0  0  4           0  0  0
    3.4213    0.5836   -1.0497 C   0  0  0  0  0  4           0  0  0
    2.0264    0.6146   -1.0720 C   0  0  0  0  0  4           0  0  0
    1.2839    0.9402   -3.5134 C   0  0  0  0  0  4           0  0  0
    0.4069    1.7623   -4.2789 C   0  0  0  0  0  4           0  0  0
   -0.6156   -0.0000    1.2897 C   0  0  0  0  0  4           0  0  0
   -1.9559    0.7231    1.1902 C   0  0  1  0  0  4           0  0  0
   -2.8963    0.0317    0.1900 C   0  0  0  0  0  4           0  0  0
   -2.6337    0.8415    2.5647 C   0  0  0  0  0  4           0  0  0
   -4.2403    0.7513    0.0933 C   0  0  0  0  0  4           0  0  0
   -3.9778    1.5607    2.4691 C   0  0  0  0  0  4           0  0  0
   -4.9040    0.8894    1.4599 C   0  0  0  0  0  4           0  0  0
  1  7  1  0     0  0
  1  8  1  0     0  0
  2  9  1  0     0  0
  2 15  1  0     0  0
  3  9  2  0     0  0
  3 10  1  0     0  0
  4 10  2  0     0  0
  4 11  1  0     0  0
  5 10  1  0     0  0
  6 11  1  0     0  0
  7 12  1  0     0  0
  7 13  2  0     0  0
  8 14  2  0     0  0
  9 12  1  0     0  0
 11 12  2  0     0  0
 13 14  1  0     0  0
 15 16  1  0     0  0
 16 17  1  0     0  0
 16 18  1  0     0  0
 17 19  1  0     0  0
 18 20  1  0     0  0
 19 21  1  0     0  0
 20 21  1  0     0  0
M  END
> <Compound >
14

> <standard_type>
pIC50

> <# Confs.>
25

> <canonical_smiles>
NC1=NC(N)=C(C2=CC=CS2)C(OCC3CCCCC3)=N1

> <standard_relation>
=

> <predicted_activity_value>
4.49815642831505

> <actual_activity_value>
4.259637310505756

> <Publication ID>
nan

> <standard_units>
nM

> hash
6423501613014595294

$$$$
14_
XXILIB    08252103513D 0   0.00000     0.00000

 21 23  0     1  0            999 V2000
    0.8084   -2.9082   -2.0743 S   0  0  0  0  0  2           0  0  0
    0.0000    0.0000   -0.0000 O   0  0  0  0  0  2           0  0  0
    2.0467    0.5898    1.0215 N   0  0  0  0  0  3           0  0  0
    4.0967   -0.0132   -0.0203 N   0  0  0  0  0  3           0  0  0
    4.0942    1.1641    2.0135 N   0  0  0  0  0  3           0  0  0
    4.1704   -1.1703   -2.0676 N   0  0  0  0  0  3           0  0  0
    1.2698   -1.2498   -2.1566 C   0  0  0  0  0  4           0  0  0
    0.0418   -2.8548   -3.5984 C   0  0  0  0  0  4           0  0  0
    1.3861    0.0000    0.0000 C   0  0  0  0  0  4           0  0  0
    3.3935    0.5656    0.9788 C   0  0  0  0  0  4           0  0  0
    3.4213   -0.6173   -1.0302 C   0  0  0  0  0  4           0  0  0
    2.0264   -0.6211   -1.0683 C   0  0  0  0  0  4           0  0  0
    0.8251   -0.6855   -3.3421 C   0  0  0  0  0  4           0  0  0
    0.1227   -1.6079   -4.1709 C   0  0  0  0  0  4           0  0  0
   -0.6156   -0.0000    1.2897 C   0  0  0  0  0  4           0  0  0
   -1.9559    0.7231    1.1902 C   0  0  1  0  0  4           0  0  0
   -2.6774    0.7617    2.5470 C   0  0  0  0  0  4           0  0  0
   -1.7863    2.1468    0.6362 C   0  0  0  0  0  4           0  0  0
   -4.0168    1.4898    2.4501 C   0  0  0  0  0  4           0  0  0
   -3.1250    2.8759    0.5391 C   0  0  0  0  0  4           0  0  0
   -3.8530    2.8951    1.8794 C   0  0  0  0  0  4           0  0  0
  1  7  1  0     0  0
  1  8  1  0     0  0
  2  9  1  0     0  0
  2 15  1  0     0  0
  3  9  2  0     0  0
  3 10  1  0     0  0
  4 10  2  0     0  0
  4 11  1  0     0  0
  5 10  1  0     0  0
  6 11  1  0     0  0
  7 12  1  0     0  0
  7 13  2  0     0  0
  8 14  2  0     0  0
  9 12  1  0     0  0
 11 12  2  0     0  0
 13 14  1  0     0  0
 15 16  1  0     0  0
 16 17  1  0     0  0
 16 18  1  0     0  0
 17 19  1  0     0  0
 18 20  1  0     0  0
 19 21  1  0     0  0
 20 21  1  0     0  0
M  END
> <Compound >
14

> <standard_type>
pIC50

> <# Confs.>
25

> <canonical_smiles>
NC1=NC(N)=C(C2=CC=CS2)C(OCC3CCCCC3)=N1

> <standard_relation>
=

> <predicted_activity_value>
4.49815642831505

> <actual_activity_value>
4.259637310505756

> <Publication ID>
nan

> <standard_units>
nM

> hash
6423501613014595294

$$$$
14_
XXILIB    08252103513D 0   0.00000     0.00000

 21 23  0     1  0            999 V2000
    0.8084    0.3423   -3.5557 S   0  0  0  0  0  2           0  0  0
    0.0000   -0.0000    0.0000 O   0  0  0  0  0  2           0  0  0
    2.0467   -0.5898    1.0215 N   0  0  0  0  0  3           0  0  0
    4.0967    0.0110   -0.0216 N   0  0  0  0  0  3           0  0  0
    4.0942   -1.1617    2.0148 N   0  0  0  0  0  3           0  0  0
    4.1704    1.2054   -2.0473 N   0  0  0  0  0  3           0  0  0
    1.2698    1.2428   -2.1607 C   0  0  0  0  0  4           0  0  0
    0.0418    1.6889   -4.2715 C   0  0  0  0  0  4           0  0  0
    1.3861   -0.0000    0.0000 C   0  0  0  0  0  4           0  0  0
    3.3935   -0.5649    0.9792 C   0  0  0  0  0  4           0  0  0
    3.4213    0.5836   -1.0497 C   0  0  0  0  0  4           0  0  0
    2.0264    0.6146   -1.0720 C   0  0  0  0  0  4           0  0  0
    0.8251    2.5516   -2.2648 C   0  0  0  0  0  4           0  0  0
    0.1227    2.8082   -3.4779 C   0  0  0  0  0  4           0  0  0
   -0.6156   -0.0000    1.2897 C   0  0  0  0  0  4           0  0  0
   -1.9559   -0.7231    1.1902 C   0  0  1  0  0  4           0  0  0
   -1.7785   -2.1769    0.7235 C   0  0  0  0  0  4           0  0  0
   -2.7174   -0.6810    2.5248 C   0  0  0  0  0  4           0  0  0
   -3.1188   -2.9036    0.6285 C   0  0  0  0  0  4           0  0  0
   -4.0576   -1.4075    2.4310 C   0  0  0  0  0  4           0  0  0
   -3.8858   -2.8435    1.9459 C   0  0  0  0  0  4           0  0  0
  1  7  1  0     0  0
  1  8  1  0     0  0
  2  9  1  0     0  0
  2 15  1  0     0  0
  3  9  2  0     0  0
  3 10  1  0     0  0
  4 10  2  0     0  0
  4 11  1  0     0  0
  5 10  1  0     0  0
  6 11  1  0     0  0
  7 12  1  0     0  0
  7 13  2  0     0  0
  8 14  2  0     0  0
  9 12  1  0     0  0
 11 12  2  0     0  0
 13 14  1  0     0  0
 15 16  1  0     0  0
 16 17  1  0     0  0
 16 18  1  0     0  0
 17 19  1  0     0  0
 18 20  1  0     0  0
 19 21  1  0     0  0
 20 21  1  0     0  0
M  END
> <Compound >
14

> <standard_type>
pIC50

> <# Confs.>
25

> <canonical_smiles>
NC1=NC(N)=C(C2=CC=CS2)C(OCC3CCCCC3)=N1

> <standard_relation>
=

> <predicted_activity_value>
4.49815642831505

> <actual_activity_value>
4.259637310505756

> <Publication ID>
nan

> <standard_units>
nM

> hash
6423501613014595294

$$$$
14_
XXILIB    08252103513D 0   0.00000     0.00000

 21 23  0     1  0            999 V2000
    0.8084    0.3423   -3.5557 S   0  0  0  0  0  2           0  0  0
    0.0000    0.0000   -0.0000 O   0  0  0  0  0  2           0  0  0
    2.0467   -0.5898    1.0215 N   0  0  0  0  0  3           0  0  0
    4.0967    0.0110   -0.0216 N   0  0  0  0  0  3           0  0  0
    4.0942   -1.1617    2.0148 N   0  0  0  0  0  3           0  0  0
    4.1704    1.2054   -2.0473 N   0  0  0  0  0  3           0  0  0
    1.2698    1.2428   -2.1607 C   0  0  0  0  0  4           0  0  0
    0.0418    1.6889   -4.2715 C   0  0  0  0  0  4           0  0  0
    1.3861   -0.0000    0.0000 C   0  0  0  0  0  4           0  0  0
    3.3935   -0.5649    0.9792 C   0  0  0  0  0  4           0  0  0
    3.4213    0.5836   -1.0497 C   0  0  0  0  0  4           0  0  0
    2.0264    0.6146   -1.0720 C   0  0  0  0  0  4           0  0  0
    0.8251    2.5516   -2.2648 C   0  0  0  0  0  4           0  0  0
    0.1227    2.8082   -3.4779 C   0  0  0  0  0  4           0  0  0
   -0.6156    0.0000    1.2897 C   0  0  0  0  0  4           0  0  0
   -0.8256    1.4462    1.7297 C   0  0  1  0  0  4           0  0  0
   -1.7290    2.2086    0.7471 C   0  0  0  0  0  4           0  0  0
   -1.4020    1.5224    3.1526 C   0  0  0  0  0  4           0  0  0
   -1.9445    3.6549    1.1890 C   0  0  0  0  0  4           0  0  0
   -1.6180    2.9682    3.5954 C   0  0  0  0  0  4           0  0  0
   -2.4956    3.7329    2.6094 C   0  0  0  0  0  4           0  0  0
  1  7  1  0     0  0
  1  8  1  0     0  0
  2  9  1  0     0  0
  2 15  1  0     0  0
  3  9  2  0     0  0
  3 10  1  0     0  0
  4 10  2  0     0  0
  4 11  1  0     0  0
  5 10  1  0     0  0
  6 11  1  0     0  0
  7 12  1  0     0  0
  7 13  2  0     0  0
  8 14  2  0     0  0
  9 12  1  0     0  0
 11 12  2  0     0  0
 13 14  1  0     0  0
 15 16  1  0     0  0
 16 17  1  0     0  0
 16 18  1  0     0  0
 17 19  1  0     0  0
 18 20  1  0     0  0
 19 21  1  0     0  0
 20 21  1  0     0  0
M  END
> <Compound >
14

> <standard_type>
pIC50

> <# Confs.>
25

> <canonical_smiles>
NC1=NC(N)=C(C2=CC=CS2)C(OCC3CCCCC3)=N1

> <standard_relation>
=

> <predicted_activity_value>
4.49815642831505

> <actual_activity_value>
4.259637310505756

> <Publication ID>
nan

> <standard_units>
nM

> hash
6423501613014595294

$$$$
14_
XXILIB    08252103513D 0   0.00000     0.00000

 21 23  0     1  0            999 V2000
    0.8156    1.4730   -3.2556 S   0  0  0  0  0  2           0  0  0
    0.0000    0.0000    0.0000 O   0  0  0  0  0  2           0  0  0
    2.0467    0.0000    1.1796 N   0  0  0  0  0  3           0  0  0
    4.0967   -0.0012   -0.0242 N   0  0  0  0  0  3           0  0  0
    4.0942    0.0014    2.3257 N   0  0  0  0  0  3           0  0  0
    4.1704    0.0202   -2.3758 N   0  0  0  0  0  3           0  0  0
    1.2698   -0.0040   -2.4926 C   0  0  0  0  0  4           0  0  0
    0.0318    0.6640   -4.5380 C   0  0  0  0  0  4           0  0  0
    1.3861    0.0000    0.0000 C   0  0  0  0  0  4           0  0  0
    3.3935    0.0004    1.1304 C   0  0  0  0  0  4           0  0  0
    3.4213   -0.0195   -1.2008 C   0  0  0  0  0  4           0  0  0
    2.0264   -0.0037   -1.2357 C   0  0  0  0  0  4           0  0  0
    0.8202   -1.0858   -3.2336 C   0  0  0  0  0  4           0  0  0
    0.1070   -0.7021   -4.4063 C   0  0  0  0  0  4           0  0  0
   -0.6156    0.0000    1.2897 C   0  0  0  0  0  4           0  0  0
   -0.8256   -1.4462    1.7297 C   0  0  1  0  0  4           0  0  0
   -1.4869   -1.5233    3.1152 C   0  0  0  0  0  4           0  0  0
   -1.6528   -2.2322    0.6999 C   0  0  0  0  0  4           0  0  0
   -1.7026   -2.9703    3.5547 C   0  0  0  0  0  4           0  0  0
   -1.8693   -3.6792    1.1384 C   0  0  0  0  0  4           0  0  0
   -2.5044   -3.7579    2.5231 C   0  0  0  0  0  4           0  0  0
  1  7  1  0     0  0
  1  8  1  0     0  0
  2  9  1  0     0  0
  2 15  1  0     0  0
  3  9  2  0     0  0
  3 10  1  0     0  0
  4 10  2  0     0  0
  4 11  1  0     0  0
  5 10  1  0     0  0
  6 11  1  0     0  0
  7 12  1  0     0  0
  7 13  2  0     0  0
  8 14  2  0     0  0
  9 12  1  0     0  0
 11 12  2  0     0  0
 13 14  1  0     0  0
 15 16  1  0     0  0
 16 17  1  0     0  0
 16 18  1  0     0  0
 17 19  1  0     0  0
 18 20  1  0     0  0
 19 21  1  0     0  0
 20 21  1  0     0  0
M  END
> <Compound >
14

> <standard_type>
pIC50

> <# Confs.>
25

> <canonical_smiles>
NC1=NC(N)=C(C2=CC=CS2)C(OCC3CCCCC3)=N1

> <standard_relation>
=

> <predicted_activity_value>
4.49815642831505

> <actual_activity_value>
4.259637310505756

> <Publication ID>
nan

> <standard_units>
nM

> hash
6423501613014595294

$$$$
14_
XXILIB    08252103513D 0   0.00000     0.00000

 21 23  0     1  0            999 V2000
    0.8084    0.3423   -3.5557 S   0  0  0  0  0  2           0  0  0
    0.0000   -0.0000    0.0000 O   0  0  0  0  0  2           0  0  0
    2.0467   -0.5898    1.0215 N   0  0  0  0  0  3           0  0  0
    4.0967    0.0110   -0.0216 N   0  0  0  0  0  3           0  0  0
    4.0942   -1.1617    2.0148 N   0  0  0  0  0  3           0  0  0
    4.1704    1.2054   -2.0473 N   0  0  0  0  0  3           0  0  0
    1.2698    1.2428   -2.1607 C   0  0  0  0  0  4           0  0  0
    0.0418    1.6889   -4.2715 C   0  0  0  0  0  4           0  0  0
    1.3861   -0.0000    0.0000 C   0  0  0  0  0  4           0  0  0
    3.3935   -0.5649    0.9792 C   0  0  0  0  0  4           0  0  0
    3.4213    0.5836   -1.0497 C   0  0  0  0  0  4           0  0  0
    2.0264    0.6146   -1.0720 C   0  0  0  0  0  4           0  0  0
    0.8251    2.5516   -2.2648 C   0  0  0  0  0  4           0  0  0
    0.1227    2.8082   -3.4779 C   0  0  0  0  0  4           0  0  0
   -0.6156   -0.0000    1.2897 C   0  0  0  0  0  4           0  0  0
   -1.9559   -0.7231    1.1902 C   0  0  1  0  0  4           0  0  0
   -2.6774   -0.7617    2.5470 C   0  0  0  0  0  4           0  0  0
   -2.8604   -0.0854    0.1235 C   0  0  0  0  0  4           0  0  0
   -4.0217   -1.4805    2.4478 C   0  0  0  0  0  4           0  0  0
   -4.2049   -0.8033    0.0236 C   0  0  0  0  0  4           0  0  0
   -4.9120   -0.8628    1.3740 C   0  0  0  0  0  4           0  0  0
  1  7  1  0     0  0
  1  8  1  0     0  0
  2  9  1  0     0  0
  2 15  1  0     0  0
  3  9  2  0     0  0
  3 10  1  0     0  0
  4 10  2  0     0  0
  4 11  1  0     0  0
  5 10  1  0     0  0
  6 11  1  0     0  0
  7 12  1  0     0  0
  7 13  2  0     0  0
  8 14  2  0     0  0
  9 12  1  0     0  0
 11 12  2  0     0  0
 13 14  1  0     0  0
 15 16  1  0     0  0
 16 17  1  0     0  0
 16 18  1  0     0  0
 17 19  1  0     0  0
 18 20  1  0     0  0
 19 21  1  0     0  0
 20 21  1  0     0  0
M  END
> <Compound >
14

> <standard_type>
pIC50

> <# Confs.>
25

> <canonical_smiles>
NC1=NC(N)=C(C2=CC=CS2)C(OCC3CCCCC3)=N1

> <standard_relation>
=

> <predicted_activity_value>
4.49815642831505

> <actual_activity_value>
4.259637310505756

> <Publication ID>
nan

> <standard_units>
nM

> hash
6423501613014595294

$$$$
14_
XXILIB    08252103513D 0   0.00000     0.00000

 21 23  0     1  0            999 V2000
    0.8156    2.9034   -2.0829 S   0  0  0  0  0  2           0  0  0
    0.0000   -0.0000    0.0000 O   0  0  0  0  0  2           0  0  0
    2.0467   -0.5898    1.0215 N   0  0  0  0  0  3           0  0  0
    4.0967    0.0110   -0.0216 N   0  0  0  0  0  3           0  0  0
    4.0942   -1.1617    2.0148 N   0  0  0  0  0  3           0  0  0
    4.1704    1.2054   -2.0473 N   0  0  0  0  0  3           0  0  0
    1.2698    1.2428   -2.1607 C   0  0  0  0  0  4           0  0  0
    0.0318    2.8440   -3.5980 C   0  0  0  0  0  4           0  0  0
    1.3861   -0.0000    0.0000 C   0  0  0  0  0  4           0  0  0
    3.3935   -0.5649    0.9792 C   0  0  0  0  0  4           0  0  0
    3.4213    0.5836   -1.0497 C   0  0  0  0  0  4           0  0  0
    2.0264    0.6146   -1.0720 C   0  0  0  0  0  4           0  0  0
    0.8202    0.6765   -3.3433 C   0  0  0  0  0  4           0  0  0
    0.1070    1.5951   -4.1670 C   0  0  0  0  0  4           0  0  0
   -0.6156   -0.0000    1.2897 C   0  0  0  0  0  4           0  0  0
   -1.9559   -0.7231    1.1902 C   0  0  1  0  0  4           0  0  0
   -2.8963   -0.0317    0.1900 C   0  0  0  0  0  4           0  0  0
   -1.7699   -2.2014    0.8125 C   0  0  0  0  0  4           0  0  0
   -4.2364   -0.7574    0.0853 C   0  0  0  0  0  4           0  0  0
   -3.1093   -2.9280    0.7074 C   0  0  0  0  0  4           0  0  0
   -4.0523   -2.2302   -0.2676 C   0  0  0  0  0  4           0  0  0
  1  7  1  0     0  0
  1  8  1  0     0  0
  2  9  1  0     0  0
  2 15  1  0     0  0
  3  9  2  0     0  0
  3 10  1  0     0  0
  4 10  2  0     0  0
  4 11  1  0     0  0
  5 10  1  0     0  0
  6 11  1  0     0  0
  7 12  1  0     0  0
  7 13  2  0     0  0
  8 14  2  0     0  0
  9 12  1  0     0  0
 11 12  2  0     0  0
 13 14  1  0     0  0
 15 16  1  0     0  0
 16 17  1  0     0  0
 16 18  1  0     0  0
 17 19  1  0     0  0
 18 20  1  0     0  0
 19 21  1  0     0  0
 20 21  1  0     0  0
M  END
> <Compound >
14

> <standard_type>
pIC50

> <# Confs.>
25

> <canonical_smiles>
NC1=NC(N)=C(C2=CC=CS2)C(OCC3CCCCC3)=N1

> <standard_relation>
=

> <predicted_activity_value>
4.49815642831505

> <actual_activity_value>
4.259637310505756

> <Publication ID>
nan

> <standard_units>
nM

> hash
6423501613014595294

$$$$
27_
XXILIB    08252103453D 0   0.00000     0.00000

 20 21  0     1  0            999 V2000
   -2.6433   -0.0054    2.4367 O   0  0  0  0  0  2           0  0  0
    5.0655    0.0015    4.2294 O   0  0  0  0  0  2           0  0  0
   -4.8104   -0.0071   -0.9837 O   0  0  0  0  0  2           0  0  0
   -0.6193   -0.0000    1.2056 N   0  0  0  0  0  3           0  0  0
   -0.6714   -0.0005   -1.1771 N   0  0  0  0  0  3           0  0  0
    1.4053    0.0000    0.0000 N   0  0  0  0  0  3           0  0  0
   -1.9743   -0.0027    1.2218 C   0  0  0  0  0  4           0  0  0
    4.2251   -0.0425    3.1463 C   0  0  0  0  0  4           0  0  0
    0.0000    0.0000    0.0000 C   0  0  0  0  0  4           0  0  0
   -2.0200   -0.0017   -1.1180 C   0  0  0  0  0  4           0  0  0
    2.3179    0.0000    1.0573 C   0  0  0  0  0  4           0  0  0
   -2.7292   -0.0032    0.0646 C   0  0  0  0  0  4           0  0  0
    4.5155   -0.6345    1.9161 C   0  0  0  0  0  4           0  0  0
    2.9822    0.5686    3.3293 C   0  0  0  0  0  4           0  0  0
    3.5690   -0.6117    0.8852 C   0  0  0  0  0  4           0  0  0
    2.0386    0.5894    2.2975 C   0  0  0  0  0  4           0  0  0
   -4.1877   -0.0068    0.0694 C   0  0  0  0  0  4           0  0  0
   -1.7866   -0.0049    3.5784 C   0  0  0  0  0  4           0  0  0
    6.2935   -0.6531    3.9125 C   0  0  0  0  0  4           0  0  0
   -2.6569   -0.0080    4.8226 C   0  0  0  0  0  4           0  0  0
  1  7  1  0     0  0
  1 18  1  0     0  0
  2  8  1  0     0  0
  2 19  1  0     0  0
  3 17  2  0     0  0
  4  7  2  0     0  0
  4  9  1  0     0  0
  5  9  2  0     0  0
  5 10  1  0     0  0
  6  9  1  0     0  0
  6 11  1  0     0  0
  7 12  1  0     0  0
  8 13  2  0     0  0
  8 14  1  0     0  0
 10 12  2  0     0  0
 11 15  2  0     0  0
 11 16  1  0     0  0
 12 17  1  0     0  0
 13 15  1  0     0  0
 14 16  2  0     0  0
 18 20  1  0     0  0
M  END
> <Compound >
27

> <standard_type>
pIC50

> <# Confs.>
25

> <canonical_smiles>
CCOC1=NC(NC2=CC=C(OC)C=C2)=NC=C1C([H])=O

> <standard_relation>
=

> <predicted_activity_value>
5.437992792963539

> <actual_activity_value>
5.721246399047171

> <Publication ID>
nan

> <standard_units>
nM

> hash
3159246324900503560

$$$$
27_
XXILIB    08252103453D 0   0.00000     0.00000

 20 21  0     1  0            999 V2000
   -2.6433   -0.0054    2.4367 O   0  0  0  0  0  2           0  0  0
    5.0618    0.0070    4.2325 O   0  0  0  0  0  2           0  0  0
   -4.8104   -0.0071   -0.9837 O   0  0  0  0  0  2           0  0  0
   -0.6193   -0.0000    1.2056 N   0  0  0  0  0  3           0  0  0
   -0.6714   -0.0005   -1.1771 N   0  0  0  0  0  3           0  0  0
    1.4053    0.0000    0.0000 N   0  0  0  0  0  3           0  0  0
   -1.9743   -0.0027    1.2218 C   0  0  0  0  0  4           0  0  0
    4.2232    0.0469    3.1479 C   0  0  0  0  0  4           0  0  0
    0.0000    0.0000    0.0000 C   0  0  0  0  0  4           0  0  0
   -2.0200   -0.0017   -1.1180 C   0  0  0  0  0  4           0  0  0
    2.3179    0.0000    1.0573 C   0  0  0  0  0  4           0  0  0
   -2.7292   -0.0032    0.0646 C   0  0  0  0  0  4           0  0  0
    4.5142    0.6375    1.9172 C   0  0  0  0  0  4           0  0  0
    2.9810   -0.5659    3.3303 C   0  0  0  0  0  4           0  0  0
    3.5690    0.6117    0.8852 C   0  0  0  0  0  4           0  0  0
    2.0390   -0.5902    2.2972 C   0  0  0  0  0  4           0  0  0
   -4.1877   -0.0068    0.0694 C   0  0  0  0  0  4           0  0  0
   -1.7866   -0.0049    3.5784 C   0  0  0  0  0  4           0  0  0
    6.2887    0.6641    3.9166 C   0  0  0  0  0  4           0  0  0
   -2.6569   -0.0080    4.8226 C   0  0  0  0  0  4           0  0  0
  1  7  1  0     0  0
  1 18  1  0     0  0
  2  8  1  0     0  0
  2 19  1  0     0  0
  3 17  2  0     0  0
  4  7  2  0     0  0
  4  9  1  0     0  0
  5  9  2  0     0  0
  5 10  1  0     0  0
  6  9  1  0     0  0
  6 11  1  0     0  0
  7 12  1  0     0  0
  8 13  2  0     0  0
  8 14  1  0     0  0
 10 12  2  0     0  0
 11 15  2  0     0  0
 11 16  1  0     0  0
 12 17  1  0     0  0
 13 15  1  0     0  0
 14 16  2  0     0  0
 18 20  1  0     0  0
M  END
> <Compound >
27

> <standard_type>
pIC50

> <# Confs.>
25

> <canonical_smiles>
CCOC1=NC(NC2=CC=C(OC)C=C2)=NC=C1C([H])=O

> <standard_relation>
=

> <predicted_activity_value>
5.437992792963539

> <actual_activity_value>
5.721246399047171

> <Publication ID>
nan

> <standard_units>
nM

> hash
3159246324900503560

$$$$
27_
XXILIB    08252103453D 0   0.00000     0.00000

 20 21  0     1  0            999 V2000
   -2.6433   -0.0054    2.4367 O   0  0  0  0  0  2           0  0  0
    5.0655   -0.0015   -4.2294 O   0  0  0  0  0  2           0  0  0
   -4.8104   -0.0071   -0.9837 O   0  0  0  0  0  2           0  0  0
   -0.6193   -0.0000    1.2056 N   0  0  0  0  0  3           0  0  0
   -0.6714   -0.0005   -1.1771 N   0  0  0  0  0  3           0  0  0
    1.4053   -0.0000   -0.0000 N   0  0  0  0  0  3           0  0  0
   -1.9743   -0.0027    1.2218 C   0  0  0  0  0  4           0  0  0
    4.2251    0.0425   -3.1463 C   0  0  0  0  0  4           0  0  0
    0.0000    0.0000    0.0000 C   0  0  0  0  0  4           0  0  0
   -2.0200   -0.0017   -1.1180 C   0  0  0  0  0  4           0  0  0
    2.3179    0.0000   -1.0573 C   0  0  0  0  0  4           0  0  0
   -2.7292   -0.0032    0.0646 C   0  0  0  0  0  4           0  0  0
    4.5155    0.6345   -1.9161 C   0  0  0  0  0  4           0  0  0
    2.9822   -0.5686   -3.3293 C   0  0  0  0  0  4           0  0  0
    3.5690    0.6117   -0.8852 C   0  0  0  0  0  4           0  0  0
    2.0386   -0.5894   -2.2975 C   0  0  0  0  0  4           0  0  0
   -4.1877   -0.0068    0.0694 C   0  0  0  0  0  4           0  0  0
   -1.7866   -0.0049    3.5784 C   0  0  0  0  0  4           0  0  0
    6.2935    0.6531   -3.9125 C   0  0  0  0  0  4           0  0  0
   -2.6569   -0.0080    4.8226 C   0  0  0  0  0  4           0  0  0
  1  7  1  0     0  0
  1 18  1  0     0  0
  2  8  1  0     0  0
  2 19  1  0     0  0
  3 17  2  0     0  0
  4  7  2  0     0  0
  4  9  1  0     0  0
  5  9  2  0     0  0
  5 10  1  0     0  0
  6  9  1  0     0  0
  6 11  1  0     0  0
  7 12  1  0     0  0
  8 13  2  0     0  0
  8 14  1  0     0  0
 10 12  2  0     0  0
 11 15  2  0     0  0
 11 16  1  0     0  0
 12 17  1  0     0  0
 13 15  1  0     0  0
 14 16  2  0     0  0
 18 20  1  0     0  0
M  END
> <Compound >
27

> <standard_type>
pIC50

> <# Confs.>
25

> <canonical_smiles>
CCOC1=NC(NC2=CC=C(OC)C=C2)=NC=C1C([H])=O

> <standard_relation>
=

> <predicted_activity_value>
5.437992792963539

> <actual_activity_value>
5.721246399047171

> <Publication ID>
nan

> <standard_units>
nM

> hash
3159246324900503560

$$$$
27_
XXILIB    08252103453D 0   0.00000     0.00000

 20 21  0     1  0            999 V2000
   -2.6433   -0.0054    2.4367 O   0  0  0  0  0  2           0  0  0
    5.0618   -0.0070   -4.2325 O   0  0  0  0  0  2           0  0  0
   -4.8104   -0.0071   -0.9837 O   0  0  0  0  0  2           0  0  0
   -0.6193   -0.0000    1.2056 N   0  0  0  0  0  3           0  0  0
   -0.6714   -0.0005   -1.1771 N   0  0  0  0  0  3           0  0  0
    1.4053    0.0000   -0.0000 N   0  0  0  0  0  3           0  0  0
   -1.9743   -0.0027    1.2218 C   0  0  0  0  0  4           0  0  0
    4.2232   -0.0469   -3.1479 C   0  0  0  0  0  4           0  0  0
    0.0000    0.0000    0.0000 C   0  0  0  0  0  4           0  0  0
   -2.0200   -0.0017   -1.1180 C   0  0  0  0  0  4           0  0  0
    2.3179    0.0000   -1.0573 C   0  0  0  0  0  4           0  0  0
   -2.7292   -0.0032    0.0646 C   0  0  0  0  0  4           0  0  0
    4.5142   -0.6375   -1.9172 C   0  0  0  0  0  4           0  0  0
    2.9810    0.5659   -3.3303 C   0  0  0  0  0  4           0  0  0
    3.5690   -0.6117   -0.8852 C   0  0  0  0  0  4           0  0  0
    2.0390    0.5902   -2.2972 C   0  0  0  0  0  4           0  0  0
   -4.1877   -0.0068    0.0694 C   0  0  0  0  0  4           0  0  0
   -1.7866   -0.0049    3.5784 C   0  0  0  0  0  4           0  0  0
    6.2887   -0.6641   -3.9166 C   0  0  0  0  0  4           0  0  0
   -2.6569   -0.0080    4.8226 C   0  0  0  0  0  4           0  0  0
  1  7  1  0     0  0
  1 18  1  0     0  0
  2  8  1  0     0  0
  2 19  1  0     0  0
  3 17  2  0     0  0
  4  7  2  0     0  0
  4  9  1  0     0  0
  5  9  2  0     0  0
  5 10  1  0     0  0
  6  9  1  0     0  0
  6 11  1  0     0  0
  7 12  1  0     0  0
  8 13  2  0     0  0
  8 14  1  0     0  0
 10 12  2  0     0  0
 11 15  2  0     0  0
 11 16  1  0     0  0
 12 17  1  0     0  0
 13 15  1  0     0  0
 14 16  2  0     0  0
 18 20  1  0     0  0
M  END
> <Compound >
27

> <standard_type>
pIC50

> <# Confs.>
25

> <canonical_smiles>
CCOC1=NC(NC2=CC=C(OC)C=C2)=NC=C1C([H])=O

> <standard_relation>
=

> <predicted_activity_value>
5.437992792963539

> <actual_activity_value>
5.721246399047171

> <Publication ID>
nan

> <standard_units>
nM

> hash
3159246324900503560

$$$$
27_
XXILIB    08252103453D 0   0.00000     0.00000

 20 21  0     1  0            999 V2000
   -2.6433   -0.0054    2.4367 O   0  0  0  0  0  2           0  0  0
    5.0546    0.0015   -4.2388 O   0  0  0  0  0  2           0  0  0
   -4.8104   -0.0071   -0.9837 O   0  0  0  0  0  2           0  0  0
   -0.6193   -0.0000    1.2056 N   0  0  0  0  0  3           0  0  0
   -0.6714   -0.0005   -1.1771 N   0  0  0  0  0  3           0  0  0
    1.4053   -0.0000   -0.0000 N   0  0  0  0  0  3           0  0  0
   -1.9743   -0.0027    1.2218 C   0  0  0  0  0  4           0  0  0
    4.1059   -0.0425   -3.2492 C   0  0  0  0  0  4           0  0  0
    0.0000    0.0000    0.0000 C   0  0  0  0  0  4           0  0  0
   -2.0200   -0.0017   -1.1180 C   0  0  0  0  0  4           0  0  0
    2.3179    0.0000   -1.0573 C   0  0  0  0  0  4           0  0  0
   -2.7292   -0.0032    0.0646 C   0  0  0  0  0  4           0  0  0
    2.8464   -0.6345   -3.3567 C   0  0  0  0  0  4           0  0  0
    4.4685    0.5686   -2.0463 C   0  0  0  0  0  4           0  0  0
    1.9649   -0.6117   -2.2698 C   0  0  0  0  0  4           0  0  0
    3.5856    0.5894   -0.9622 C   0  0  0  0  0  4           0  0  0
   -4.1877   -0.0068    0.0694 C   0  0  0  0  0  4           0  0  0
   -1.7866   -0.0049    3.5784 C   0  0  0  0  0  4           0  0  0
    4.5617   -0.6531   -5.4074 C   0  0  0  0  0  4           0  0  0
   -2.6569   -0.0080    4.8226 C   0  0  0  0  0  4           0  0  0
  1  7  1  0     0  0
  1 18  1  0     0  0
  2  8  1  0     0  0
  2 19  1  0     0  0
  3 17  2  0     0  0
  4  7  2  0     0  0
  4  9  1  0     0  0
  5  9  2  0     0  0
  5 10  1  0     0  0
  6  9  1  0     0  0
  6 11  1  0     0  0
  7 12  1  0     0  0
  8 13  2  0     0  0
  8 14  1  0     0  0
 10 12  2  0     0  0
 11 15  2  0     0  0
 11 16  1  0     0  0
 12 17  1  0     0  0
 13 15  1  0     0  0
 14 16  2  0     0  0
 18 20  1  0     0  0
M  END
> <Compound >
27

> <standard_type>
pIC50

> <# Confs.>
25

> <canonical_smiles>
CCOC1=NC(NC2=CC=C(OC)C=C2)=NC=C1C([H])=O

> <standard_relation>
=

> <predicted_activity_value>
5.437992792963539

> <actual_activity_value>
5.721246399047171

> <Publication ID>
nan

> <standard_units>
nM

> hash
3159246324900503560

$$$$
27_
XXILIB    08252103453D 0   0.00000     0.00000

 20 21  0     1  0            999 V2000
   -2.6433   -0.0054    2.4367 O   0  0  0  0  0  2           0  0  0
    5.0583    0.0070   -4.2356 O   0  0  0  0  0  2           0  0  0
   -4.8104   -0.0071   -0.9837 O   0  0  0  0  0  2           0  0  0
   -0.6193   -0.0000    1.2056 N   0  0  0  0  0  3           0  0  0
   -0.6714   -0.0005   -1.1771 N   0  0  0  0  0  3           0  0  0
    1.4053   -0.0000   -0.0000 N   0  0  0  0  0  3           0  0  0
   -1.9743   -0.0027    1.2218 C   0  0  0  0  0  4           0  0  0
    4.1078    0.0469   -3.2475 C   0  0  0  0  0  4           0  0  0
    0.0000    0.0000    0.0000 C   0  0  0  0  0  4           0  0  0
   -2.0200   -0.0017   -1.1180 C   0  0  0  0  0  4           0  0  0
    2.3179    0.0000   -1.0573 C   0  0  0  0  0  4           0  0  0
   -2.7292   -0.0032    0.0646 C   0  0  0  0  0  4           0  0  0
    2.8477    0.6375   -3.3556 C   0  0  0  0  0  4           0  0  0
    4.4696   -0.5659   -2.0453 C   0  0  0  0  0  4           0  0  0
    1.9649    0.6117   -2.2698 C   0  0  0  0  0  4           0  0  0
    3.5853   -0.5902   -0.9625 C   0  0  0  0  0  4           0  0  0
   -4.1877   -0.0068    0.0694 C   0  0  0  0  0  4           0  0  0
   -1.7866   -0.0049    3.5784 C   0  0  0  0  0  4           0  0  0
    4.5665    0.6641   -5.4032 C   0  0  0  0  0  4           0  0  0
   -2.6569   -0.0080    4.8226 C   0  0  0  0  0  4           0  0  0
  1  7  1  0     0  0
  1 18  1  0     0  0
  2  8  1  0     0  0
  2 19  1  0     0  0
  3 17  2  0     0  0
  4  7  2  0     0  0
  4  9  1  0     0  0
  5  9  2  0     0  0
  5 10  1  0     0  0
  6  9  1  0     0  0
  6 11  1  0     0  0
  7 12  1  0     0  0
  8 13  2  0     0  0
  8 14  1  0     0  0
 10 12  2  0     0  0
 11 15  2  0     0  0
 11 16  1  0     0  0
 12 17  1  0     0  0
 13 15  1  0     0  0
 14 16  2  0     0  0
 18 20  1  0     0  0
M  END
> <Compound >
27

> <standard_type>
pIC50

> <# Confs.>
25

> <canonical_smiles>
CCOC1=NC(NC2=CC=C(OC)C=C2)=NC=C1C([H])=O

> <standard_relation>
=

> <predicted_activity_value>
5.437992792963539

> <actual_activity_value>
5.721246399047171

> <Publication ID>
nan

> <standard_units>
nM

> hash
3159246324900503560

$$$$
27_
XXILIB    08252103453D 0   0.00000     0.00000

 20 21  0     1  0            999 V2000
   -2.6433   -0.0054    2.4367 O   0  0  0  0  0  2           0  0  0
    5.0546   -0.0015    4.2388 O   0  0  0  0  0  2           0  0  0
   -4.8104   -0.0071   -0.9837 O   0  0  0  0  0  2           0  0  0
   -0.6193   -0.0000    1.2056 N   0  0  0  0  0  3           0  0  0
   -0.6714   -0.0005   -1.1771 N   0  0  0  0  0  3           0  0  0
    1.4053    0.0000    0.0000 N   0  0  0  0  0  3           0  0  0
   -1.9743   -0.0027    1.2218 C   0  0  0  0  0  4           0  0  0
    4.1059    0.0425    3.2492 C   0  0  0  0  0  4           0  0  0
    0.0000    0.0000    0.0000 C   0  0  0  0  0  4           0  0  0
   -2.0200   -0.0017   -1.1180 C   0  0  0  0  0  4           0  0  0
    2.3179   -0.0000    1.0573 C   0  0  0  0  0  4           0  0  0
   -2.7292   -0.0032    0.0646 C   0  0  0  0  0  4           0  0  0
    2.8464    0.6345    3.3567 C   0  0  0  0  0  4           0  0  0
    4.4685   -0.5686    2.0463 C   0  0  0  0  0  4           0  0  0
    1.9649    0.6117    2.2698 C   0  0  0  0  0  4           0  0  0
    3.5856   -0.5894    0.9622 C   0  0  0  0  0  4           0  0  0
   -4.1877   -0.0068    0.0694 C   0  0  0  0  0  4           0  0  0
   -1.7866   -0.0049    3.5784 C   0  0  0  0  0  4           0  0  0
    4.5617    0.6531    5.4074 C   0  0  0  0  0  4           0  0  0
   -2.6569   -0.0080    4.8226 C   0  0  0  0  0  4           0  0  0
  1  7  1  0     0  0
  1 18  1  0     0  0
  2  8  1  0     0  0
  2 19  1  0     0  0
  3 17  2  0     0  0
  4  7  2  0     0  0
  4  9  1  0     0  0
  5  9  2  0     0  0
  5 10  1  0     0  0
  6  9  1  0     0  0
  6 11  1  0     0  0
  7 12  1  0     0  0
  8 13  2  0     0  0
  8 14  1  0     0  0
 10 12  2  0     0  0
 11 15  2  0     0  0
 11 16  1  0     0  0
 12 17  1  0     0  0
 13 15  1  0     0  0
 14 16  2  0     0  0
 18 20  1  0     0  0
M  END
> <Compound >
27

> <standard_type>
pIC50

> <# Confs.>
25

> <canonical_smiles>
CCOC1=NC(NC2=CC=C(OC)C=C2)=NC=C1C([H])=O

> <standard_relation>
=

> <predicted_activity_value>
5.437992792963539

> <actual_activity_value>
5.721246399047171

> <Publication ID>
nan

> <standard_units>
nM

> hash
3159246324900503560

$$$$
27_
XXILIB    08252103453D 0   0.00000     0.00000

 20 21  0     1  0            999 V2000
   -2.6433   -0.0054    2.4367 O   0  0  0  0  0  2           0  0  0
    5.0583   -0.0070    4.2356 O   0  0  0  0  0  2           0  0  0
   -4.8104   -0.0071   -0.9837 O   0  0  0  0  0  2           0  0  0
   -0.6193   -0.0000    1.2056 N   0  0  0  0  0  3           0  0  0
   -0.6714   -0.0005   -1.1771 N   0  0  0  0  0  3           0  0  0
    1.4053    0.0000    0.0000 N   0  0  0  0  0  3           0  0  0
   -1.9743   -0.0027    1.2218 C   0  0  0  0  0  4           0  0  0
    4.1078   -0.0469    3.2475 C   0  0  0  0  0  4           0  0  0
    0.0000    0.0000    0.0000 C   0  0  0  0  0  4           0  0  0
   -2.0200   -0.0017   -1.1180 C   0  0  0  0  0  4           0  0  0
    2.3179    0.0000    1.0573 C   0  0  0  0  0  4           0  0  0
   -2.7292   -0.0032    0.0646 C   0  0  0  0  0  4           0  0  0
    2.8477   -0.6375    3.3556 C   0  0  0  0  0  4           0  0  0
    4.4696    0.5659    2.0453 C   0  0  0  0  0  4           0  0  0
    1.9649   -0.6117    2.2698 C   0  0  0  0  0  4           0  0  0
    3.5853    0.5902    0.9625 C   0  0  0  0  0  4           0  0  0
   -4.1877   -0.0068    0.0694 C   0  0  0  0  0  4           0  0  0
   -1.7866   -0.0049    3.5784 C   0  0  0  0  0  4           0  0  0
    4.5665   -0.6641    5.4032 C   0  0  0  0  0  4           0  0  0
   -2.6569   -0.0080    4.8226 C   0  0  0  0  0  4           0  0  0
  1  7  1  0     0  0
  1 18  1  0     0  0
  2  8  1  0     0  0
  2 19  1  0     0  0
  3 17  2  0     0  0
  4  7  2  0     0  0
  4  9  1  0     0  0
  5  9  2  0     0  0
  5 10  1  0     0  0
  6  9  1  0     0  0
  6 11  1  0     0  0
  7 12  1  0     0  0
  8 13  2  0     0  0
  8 14  1  0     0  0
 10 12  2  0     0  0
 11 15  2  0     0  0
 11 16  1  0     0  0
 12 17  1  0     0  0
 13 15  1  0     0  0
 14 16  2  0     0  0
 18 20  1  0     0  0
M  END
> <Compound >
27

> <standard_type>
pIC50

> <# Confs.>
25

> <canonical_smiles>
CCOC1=NC(NC2=CC=C(OC)C=C2)=NC=C1C([H])=O

> <standard_relation>
=

> <predicted_activity_value>
5.437992792963539

> <actual_activity_value>
5.721246399047171

> <Publication ID>
nan

> <standard_units>
nM

> hash
3159246324900503560

$$$$
27_
XXILIB    08252103453D 0   0.00000     0.00000

 20 21  0     1  0            999 V2000
   -2.6433   -0.0054    2.4367 O   0  0  0  0  0  2           0  0  0
    5.0642    2.1110   -3.6661 O   0  0  0  0  0  2           0  0  0
   -4.8104   -0.0071   -0.9837 O   0  0  0  0  0  2           0  0  0
   -0.6193   -0.0000    1.2056 N   0  0  0  0  0  3           0  0  0
   -0.6714   -0.0005   -1.1771 N   0  0  0  0  0  3           0  0  0
    1.4053   -0.0000   -0.0000 N   0  0  0  0  0  3           0  0  0
   -1.9743   -0.0027    1.2218 C   0  0  0  0  0  4           0  0  0
    4.2332    1.5674   -2.7199 C   0  0  0  0  0  4           0  0  0
    0.0000    0.0000    0.0000 C   0  0  0  0  0  4           0  0  0
   -2.0200   -0.0017   -1.1180 C   0  0  0  0  0  4           0  0  0
    2.3179    0.5286   -0.9156 C   0  0  0  0  0  4           0  0  0
   -2.7292   -0.0032    0.0646 C   0  0  0  0  0  4           0  0  0
    4.6438    0.9012   -1.5643 C   0  0  0  0  0  4           0  0  0
    2.8665    1.7132   -2.9705 C   0  0  0  0  0  4           0  0  0
    3.6930    0.3891   -0.6739 C   0  0  0  0  0  4           0  0  0
    1.9191    1.2007   -2.0788 C   0  0  0  0  0  4           0  0  0
   -4.1877   -0.0068    0.0694 C   0  0  0  0  0  4           0  0  0
   -1.7866   -0.0049    3.5784 C   0  0  0  0  0  4           0  0  0
    5.3577    3.4661   -3.3275 C   0  0  0  0  0  4           0  0  0
   -2.6569   -0.0080    4.8226 C   0  0  0  0  0  4           0  0  0
  1  7  1  0     0  0
  1 18  1  0     0  0
  2  8  1  0     0  0
  2 19  1  0     0  0
  3 17  2  0     0  0
  4  7  2  0     0  0
  4  9  1  0     0  0
  5  9  2  0     0  0
  5 10  1  0     0  0
  6  9  1  0     0  0
  6 11  1  0     0  0
  7 12  1  0     0  0
  8 13  2  0     0  0
  8 14  1  0     0  0
 10 12  2  0     0  0
 11 15  2  0     0  0
 11 16  1  0     0  0
 12 17  1  0     0  0
 13 15  1  0     0  0
 14 16  2  0     0  0
 18 20  1  0     0  0
M  END
> <Compound >
27

> <standard_type>
pIC50

> <# Confs.>
25

> <canonical_smiles>
CCOC1=NC(NC2=CC=C(OC)C=C2)=NC=C1C([H])=O

> <standard_relation>
=

> <predicted_activity_value>
5.437992792963539

> <actual_activity_value>
5.721246399047171

> <Publication ID>
nan

> <standard_units>
nM

> hash
3159246324900503560

$$$$
27_
XXILIB    08252103453D 0   0.00000     0.00000

 20 21  0     1  0            999 V2000
   -2.6433   -0.0054    2.4367 O   0  0  0  0  0  2           0  0  0
    5.0642   -2.1195   -3.6613 O   0  0  0  0  0  2           0  0  0
   -4.8104   -0.0071   -0.9837 O   0  0  0  0  0  2           0  0  0
   -0.6193   -0.0000    1.2056 N   0  0  0  0  0  3           0  0  0
   -0.6714   -0.0005   -1.1771 N   0  0  0  0  0  3           0  0  0
    1.4053   -0.0000    0.0000 N   0  0  0  0  0  3           0  0  0
   -1.9743   -0.0027    1.2218 C   0  0  0  0  0  4           0  0  0
    4.2332   -1.5718   -2.7174 C   0  0  0  0  0  4           0  0  0
    0.0000    0.0000    0.0000 C   0  0  0  0  0  4           0  0  0
   -2.0200   -0.0017   -1.1180 C   0  0  0  0  0  4           0  0  0
    2.3179   -0.5286   -0.9156 C   0  0  0  0  0  4           0  0  0
   -2.7292   -0.0032    0.0646 C   0  0  0  0  0  4           0  0  0
    4.6438   -0.9041   -1.5626 C   0  0  0  0  0  4           0  0  0
    2.8665   -1.7159   -2.9689 C   0  0  0  0  0  4           0  0  0
    3.6930   -0.3891   -0.6739 C   0  0  0  0  0  4           0  0  0
    1.9191   -1.1999   -2.0792 C   0  0  0  0  0  4           0  0  0
   -4.1877   -0.0068    0.0694 C   0  0  0  0  0  4           0  0  0
   -1.7866   -0.0049    3.5784 C   0  0  0  0  0  4           0  0  0
    5.3538   -3.4745   -3.3193 C   0  0  0  0  0  4           0  0  0
   -2.6569   -0.0080    4.8226 C   0  0  0  0  0  4           0  0  0
  1  7  1  0     0  0
  1 18  1  0     0  0
  2  8  1  0     0  0
  2 19  1  0     0  0
  3 17  2  0     0  0
  4  7  2  0     0  0
  4  9  1  0     0  0
  5  9  2  0     0  0
  5 10  1  0     0  0
  6  9  1  0     0  0
  6 11  1  0     0  0
  7 12  1  0     0  0
  8 13  2  0     0  0
  8 14  1  0     0  0
 10 12  2  0     0  0
 11 15  2  0     0  0
 11 16  1  0     0  0
 12 17  1  0     0  0
 13 15  1  0     0  0
 14 16  2  0     0  0
 18 20  1  0     0  0
M  END
> <Compound >
27

> <standard_type>
pIC50

> <# Confs.>
25

> <canonical_smiles>
CCOC1=NC(NC2=CC=C(OC)C=C2)=NC=C1C([H])=O

> <standard_relation>
=

> <predicted_activity_value>
5.437992792963539

> <actual_activity_value>
5.721246399047171

> <Publication ID>
nan

> <standard_units>
nM

> hash
3159246324900503560

$$$$
27_
XXILIB    08252103453D 0   0.00000     0.00000

 20 21  0     1  0            999 V2000
   -2.6433   -0.0054    2.4367 O   0  0  0  0  0  2           0  0  0
    5.0642   -2.1110    3.6661 O   0  0  0  0  0  2           0  0  0
   -4.8104   -0.0071   -0.9837 O   0  0  0  0  0  2           0  0  0
   -0.6193   -0.0000    1.2056 N   0  0  0  0  0  3           0  0  0
   -0.6714   -0.0005   -1.1771 N   0  0  0  0  0  3           0  0  0
    1.4053    0.0000    0.0000 N   0  0  0  0  0  3           0  0  0
   -1.9743   -0.0027    1.2218 C   0  0  0  0  0  4           0  0  0
    4.2332   -1.5674    2.7199 C   0  0  0  0  0  4           0  0  0
    0.0000    0.0000    0.0000 C   0  0  0  0  0  4           0  0  0
   -2.0200   -0.0017   -1.1180 C   0  0  0  0  0  4           0  0  0
    2.3179   -0.5286    0.9156 C   0  0  0  0  0  4           0  0  0
   -2.7292   -0.0032    0.0646 C   0  0  0  0  0  4           0  0  0
    4.6438   -0.9012    1.5643 C   0  0  0  0  0  4           0  0  0
    2.8665   -1.7132    2.9705 C   0  0  0  0  0  4           0  0  0
    3.6930   -0.3891    0.6739 C   0  0  0  0  0  4           0  0  0
    1.9191   -1.2007    2.0788 C   0  0  0  0  0  4           0  0  0
   -4.1877   -0.0068    0.0694 C   0  0  0  0  0  4           0  0  0
   -1.7866   -0.0049    3.5784 C   0  0  0  0  0  4           0  0  0
    5.3577   -3.4661    3.3275 C   0  0  0  0  0  4           0  0  0
   -2.6569   -0.0080    4.8226 C   0  0  0  0  0  4           0  0  0
  1  7  1  0     0  0
  1 18  1  0     0  0
  2  8  1  0     0  0
  2 19  1  0     0  0
  3 17  2  0     0  0
  4  7  2  0     0  0
  4  9  1  0     0  0
  5  9  2  0     0  0
  5 10  1  0     0  0
  6  9  1  0     0  0
  6 11  1  0     0  0
  7 12  1  0     0  0
  8 13  2  0     0  0
  8 14  1  0     0  0
 10 12  2  0     0  0
 11 15  2  0     0  0
 11 16  1  0     0  0
 12 17  1  0     0  0
 13 15  1  0     0  0
 14 16  2  0     0  0
 18 20  1  0     0  0
M  END
> <Compound >
27

> <standard_type>
pIC50

> <# Confs.>
25

> <canonical_smiles>
CCOC1=NC(NC2=CC=C(OC)C=C2)=NC=C1C([H])=O

> <standard_relation>
=

> <predicted_activity_value>
5.437992792963539

> <actual_activity_value>
5.721246399047171

> <Publication ID>
nan

> <standard_units>
nM

> hash
3159246324900503560

$$$$
27_
XXILIB    08252103453D 0   0.00000     0.00000

 20 21  0     1  0            999 V2000
   -2.6433   -0.0054    2.4367 O   0  0  0  0  0  2           0  0  0
    5.0642    2.1195    3.6613 O   0  0  0  0  0  2           0  0  0
   -4.8104   -0.0071   -0.9837 O   0  0  0  0  0  2           0  0  0
   -0.6193   -0.0000    1.2056 N   0  0  0  0  0  3           0  0  0
   -0.6714   -0.0005   -1.1771 N   0  0  0  0  0  3           0  0  0
    1.4053    0.0000   -0.0000 N   0  0  0  0  0  3           0  0  0
   -1.9743   -0.0027    1.2218 C   0  0  0  0  0  4           0  0  0
    4.2332    1.5718    2.7174 C   0  0  0  0  0  4           0  0  0
    0.0000    0.0000    0.0000 C   0  0  0  0  0  4           0  0  0
   -2.0200   -0.0017   -1.1180 C   0  0  0  0  0  4           0  0  0
    2.3179    0.5286    0.9156 C   0  0  0  0  0  4           0  0  0
   -2.7292   -0.0032    0.0646 C   0  0  0  0  0  4           0  0  0
    4.6438    0.9041    1.5626 C   0  0  0  0  0  4           0  0  0
    2.8665    1.7159    2.9689 C   0  0  0  0  0  4           0  0  0
    3.6930    0.3891    0.6739 C   0  0  0  0  0  4           0  0  0
    1.9191    1.1999    2.0792 C   0  0  0  0  0  4           0  0  0
   -4.1877   -0.0068    0.0694 C   0  0  0  0  0  4           0  0  0
   -1.7866   -0.0049    3.5784 C   0  0  0  0  0  4           0  0  0
    5.3538    3.4745    3.3193 C   0  0  0  0  0  4           0  0  0
   -2.6569   -0.0080    4.8226 C   0  0  0  0  0  4           0  0  0
  1  7  1  0     0  0
  1 18  1  0     0  0
  2  8  1  0     0  0
  2 19  1  0     0  0
  3 17  2  0     0  0
  4  7  2  0     0  0
  4  9  1  0     0  0
  5  9  2  0     0  0
  5 10  1  0     0  0
  6  9  1  0     0  0
  6 11  1  0     0  0
  7 12  1  0     0  0
  8 13  2  0     0  0
  8 14  1  0     0  0
 10 12  2  0     0  0
 11 15  2  0     0  0
 11 16  1  0     0  0
 12 17  1  0     0  0
 13 15  1  0     0  0
 14 16  2  0     0  0
 18 20  1  0     0  0
M  END
> <Compound >
27

> <standard_type>
pIC50

> <# Confs.>
25

> <canonical_smiles>
CCOC1=NC(NC2=CC=C(OC)C=C2)=NC=C1C([H])=O

> <standard_relation>
=

> <predicted_activity_value>
5.437992792963539

> <actual_activity_value>
5.721246399047171

> <Publication ID>
nan

> <standard_units>
nM

> hash
3159246324900503560

$$$$
27_
XXILIB    08252103453D 0   0.00000     0.00000

 20 21  0     1  0            999 V2000
   -2.6433   -0.0054    2.4367 O   0  0  0  0  0  2           0  0  0
    5.0655   -0.0015   -4.2294 O   0  0  0  0  0  2           0  0  0
   -4.8104   -0.0071   -0.9837 O   0  0  0  0  0  2           0  0  0
   -0.6193   -0.0000    1.2056 N   0  0  0  0  0  3           0  0  0
   -0.6714   -0.0005   -1.1771 N   0  0  0  0  0  3           0  0  0
    1.4053   -0.0000   -0.0000 N   0  0  0  0  0  3           0  0  0
   -1.9743   -0.0027    1.2218 C   0  0  0  0  0  4           0  0  0
    4.2251    0.0425   -3.1463 C   0  0  0  0  0  4           0  0  0
    0.0000    0.0000    0.0000 C   0  0  0  0  0  4           0  0  0
   -2.0200   -0.0017   -1.1180 C   0  0  0  0  0  4           0  0  0
    2.3179    0.0000   -1.0573 C   0  0  0  0  0  4           0  0  0
   -2.7292   -0.0032    0.0646 C   0  0  0  0  0  4           0  0  0
    4.5155    0.6345   -1.9161 C   0  0  0  0  0  4           0  0  0
    2.9822   -0.5686   -3.3293 C   0  0  0  0  0  4           0  0  0
    3.5690    0.6117   -0.8852 C   0  0  0  0  0  4           0  0  0
    2.0386   -0.5894   -2.2975 C   0  0  0  0  0  4           0  0  0
   -4.1877   -0.0068    0.0694 C   0  0  0  0  0  4           0  0  0
   -1.7866   -0.0049    3.5784 C   0  0  0  0  0  4           0  0  0
    4.8536    1.1470   -5.0498 C   0  0  0  0  0  4           0  0  0
   -1.5000   -1.4476    3.9549 C   0  0  0  0  0  4           0  0  0
  1  7  1  0     0  0
  1 18  1  0     0  0
  2  8  1  0     0  0
  2 19  1  0     0  0
  3 17  2  0     0  0
  4  7  2  0     0  0
  4  9  1  0     0  0
  5  9  2  0     0  0
  5 10  1  0     0  0
  6  9  1  0     0  0
  6 11  1  0     0  0
  7 12  1  0     0  0
  8 13  2  0     0  0
  8 14  1  0     0  0
 10 12  2  0     0  0
 11 15  2  0     0  0
 11 16  1  0     0  0
 12 17  1  0     0  0
 13 15  1  0     0  0
 14 16  2  0     0  0
 18 20  1  0     0  0
M  END
> <Compound >
27

> <standard_type>
pIC50

> <# Confs.>
25

> <canonical_smiles>
CCOC1=NC(NC2=CC=C(OC)C=C2)=NC=C1C([H])=O

> <standard_relation>
=

> <predicted_activity_value>
5.437992792963539

> <actual_activity_value>
5.721246399047171

> <Publication ID>
nan

> <standard_units>
nM

> hash
3159246324900503560

$$$$
27_
XXILIB    08252103453D 0   0.00000     0.00000

 20 21  0     1  0            999 V2000
   -2.6433   -0.0054    2.4367 O   0  0  0  0  0  2           0  0  0
    5.0655   -0.0015   -4.2294 O   0  0  0  0  0  2           0  0  0
   -4.8104   -0.0071   -0.9837 O   0  0  0  0  0  2           0  0  0
   -0.6193   -0.0000    1.2056 N   0  0  0  0  0  3           0  0  0
   -0.6714   -0.0005   -1.1771 N   0  0  0  0  0  3           0  0  0
    1.4053   -0.0000   -0.0000 N   0  0  0  0  0  3           0  0  0
   -1.9743   -0.0027    1.2218 C   0  0  0  0  0  4           0  0  0
    4.2251    0.0425   -3.1463 C   0  0  0  0  0  4           0  0  0
    0.0000    0.0000    0.0000 C   0  0  0  0  0  4           0  0  0
   -2.0200   -0.0017   -1.1180 C   0  0  0  0  0  4           0  0  0
    2.3179    0.0000   -1.0573 C   0  0  0  0  0  4           0  0  0
   -2.7292   -0.0032    0.0646 C   0  0  0  0  0  4           0  0  0
    4.5155    0.6345   -1.9161 C   0  0  0  0  0  4           0  0  0
    2.9822   -0.5686   -3.3293 C   0  0  0  0  0  4           0  0  0
    3.5690    0.6117   -0.8852 C   0  0  0  0  0  4           0  0  0
    2.0386   -0.5894   -2.2975 C   0  0  0  0  0  4           0  0  0
   -4.1877   -0.0068    0.0694 C   0  0  0  0  0  4           0  0  0
   -1.7866   -0.0049    3.5784 C   0  0  0  0  0  4           0  0  0
    4.8536    1.1470   -5.0498 C   0  0  0  0  0  4           0  0  0
   -1.5057    1.4382    3.9581 C   0  0  0  0  0  4           0  0  0
  1  7  1  0     0  0
  1 18  1  0     0  0
  2  8  1  0     0  0
  2 19  1  0     0  0
  3 17  2  0     0  0
  4  7  2  0     0  0
  4  9  1  0     0  0
  5  9  2  0     0  0
  5 10  1  0     0  0
  6  9  1  0     0  0
  6 11  1  0     0  0
  7 12  1  0     0  0
  8 13  2  0     0  0
  8 14  1  0     0  0
 10 12  2  0     0  0
 11 15  2  0     0  0
 11 16  1  0     0  0
 12 17  1  0     0  0
 13 15  1  0     0  0
 14 16  2  0     0  0
 18 20  1  0     0  0
M  END
> <Compound >
27

> <standard_type>
pIC50

> <# Confs.>
25

> <canonical_smiles>
CCOC1=NC(NC2=CC=C(OC)C=C2)=NC=C1C([H])=O

> <standard_relation>
=

> <predicted_activity_value>
5.437992792963539

> <actual_activity_value>
5.721246399047171

> <Publication ID>
nan

> <standard_units>
nM

> hash
3159246324900503560

$$$$
27_
XXILIB    08252103453D 0   0.00000     0.00000

 20 21  0     1  0            999 V2000
   -2.6433   -0.0054    2.4367 O   0  0  0  0  0  2           0  0  0
    5.0618   -0.0070   -4.2325 O   0  0  0  0  0  2           0  0  0
   -4.8104   -0.0071   -0.9837 O   0  0  0  0  0  2           0  0  0
   -0.6193   -0.0000    1.2056 N   0  0  0  0  0  3           0  0  0
   -0.6714   -0.0005   -1.1771 N   0  0  0  0  0  3           0  0  0
    1.4053    0.0000   -0.0000 N   0  0  0  0  0  3           0  0  0
   -1.9743   -0.0027    1.2218 C   0  0  0  0  0  4           0  0  0
    4.2232   -0.0469   -3.1479 C   0  0  0  0  0  4           0  0  0
    0.0000    0.0000    0.0000 C   0  0  0  0  0  4           0  0  0
   -2.0200   -0.0017   -1.1180 C   0  0  0  0  0  4           0  0  0
    2.3179    0.0000   -1.0573 C   0  0  0  0  0  4           0  0  0
   -2.7292   -0.0032    0.0646 C   0  0  0  0  0  4           0  0  0
    4.5142   -0.6375   -1.9172 C   0  0  0  0  0  4           0  0  0
    2.9810    0.5659   -3.3303 C   0  0  0  0  0  4           0  0  0
    3.5690   -0.6117   -0.8852 C   0  0  0  0  0  4           0  0  0
    2.0390    0.5902   -2.2972 C   0  0  0  0  0  4           0  0  0
   -4.1877   -0.0068    0.0694 C   0  0  0  0  0  4           0  0  0
   -1.7866   -0.0049    3.5784 C   0  0  0  0  0  4           0  0  0
    4.8456   -1.1563   -5.0506 C   0  0  0  0  0  4           0  0  0
   -1.5000   -1.4476    3.9549 C   0  0  0  0  0  4           0  0  0
  1  7  1  0     0  0
  1 18  1  0     0  0
  2  8  1  0     0  0
  2 19  1  0     0  0
  3 17  2  0     0  0
  4  7  2  0     0  0
  4  9  1  0     0  0
  5  9  2  0     0  0
  5 10  1  0     0  0
  6  9  1  0     0  0
  6 11  1  0     0  0
  7 12  1  0     0  0
  8 13  2  0     0  0
  8 14  1  0     0  0
 10 12  2  0     0  0
 11 15  2  0     0  0
 11 16  1  0     0  0
 12 17  1  0     0  0
 13 15  1  0     0  0
 14 16  2  0     0  0
 18 20  1  0     0  0
M  END
> <Compound >
27

> <standard_type>
pIC50

> <# Confs.>
25

> <canonical_smiles>
CCOC1=NC(NC2=CC=C(OC)C=C2)=NC=C1C([H])=O

> <standard_relation>
=

> <predicted_activity_value>
5.437992792963539

> <actual_activity_value>
5.721246399047171

> <Publication ID>
nan

> <standard_units>
nM

> hash
3159246324900503560

$$$$
27_
XXILIB    08252103453D 0   0.00000     0.00000

 20 21  0     1  0            999 V2000
   -2.6433   -0.0054    2.4367 O   0  0  0  0  0  2           0  0  0
    5.0618   -0.0070   -4.2325 O   0  0  0  0  0  2           0  0  0
   -4.8104   -0.0071   -0.9837 O   0  0  0  0  0  2           0  0  0
   -0.6193   -0.0000    1.2056 N   0  0  0  0  0  3           0  0  0
   -0.6714   -0.0005   -1.1771 N   0  0  0  0  0  3           0  0  0
    1.4053    0.0000   -0.0000 N   0  0  0  0  0  3           0  0  0
   -1.9743   -0.0027    1.2218 C   0  0  0  0  0  4           0  0  0
    4.2232   -0.0469   -3.1479 C   0  0  0  0  0  4           0  0  0
    0.0000    0.0000    0.0000 C   0  0  0  0  0  4           0  0  0
   -2.0200   -0.0017   -1.1180 C   0  0  0  0  0  4           0  0  0
    2.3179    0.0000   -1.0573 C   0  0  0  0  0  4           0  0  0
   -2.7292   -0.0032    0.0646 C   0  0  0  0  0  4           0  0  0
    4.5142   -0.6375   -1.9172 C   0  0  0  0  0  4           0  0  0
    2.9810    0.5659   -3.3303 C   0  0  0  0  0  4           0  0  0
    3.5690   -0.6117   -0.8852 C   0  0  0  0  0  4           0  0  0
    2.0390    0.5902   -2.2972 C   0  0  0  0  0  4           0  0  0
   -4.1877   -0.0068    0.0694 C   0  0  0  0  0  4           0  0  0
   -1.7866   -0.0049    3.5784 C   0  0  0  0  0  4           0  0  0
    4.8456   -1.1563   -5.0506 C   0  0  0  0  0  4           0  0  0
   -1.5057    1.4382    3.9581 C   0  0  0  0  0  4           0  0  0
  1  7  1  0     0  0
  1 18  1  0     0  0
  2  8  1  0     0  0
  2 19  1  0     0  0
  3 17  2  0     0  0
  4  7  2  0     0  0
  4  9  1  0     0  0
  5  9  2  0     0  0
  5 10  1  0     0  0
  6  9  1  0     0  0
  6 11  1  0     0  0
  7 12  1  0     0  0
  8 13  2  0     0  0
  8 14  1  0     0  0
 10 12  2  0     0  0
 11 15  2  0     0  0
 11 16  1  0     0  0
 12 17  1  0     0  0
 13 15  1  0     0  0
 14 16  2  0     0  0
 18 20  1  0     0  0
M  END
> <Compound >
27

> <standard_type>
pIC50

> <# Confs.>
25

> <canonical_smiles>
CCOC1=NC(NC2=CC=C(OC)C=C2)=NC=C1C([H])=O

> <standard_relation>
=

> <predicted_activity_value>
5.437992792963539

> <actual_activity_value>
5.721246399047171

> <Publication ID>
nan

> <standard_units>
nM

> hash
3159246324900503560

$$$$
27_
XXILIB    08252103453D 0   0.00000     0.00000

 20 21  0     1  0            999 V2000
   -2.6433   -0.0054    2.4367 O   0  0  0  0  0  2           0  0  0
    5.0655    0.0015    4.2294 O   0  0  0  0  0  2           0  0  0
   -4.8104   -0.0071   -0.9837 O   0  0  0  0  0  2           0  0  0
   -0.6193   -0.0000    1.2056 N   0  0  0  0  0  3           0  0  0
   -0.6714   -0.0005   -1.1771 N   0  0  0  0  0  3           0  0  0
    1.4053    0.0000    0.0000 N   0  0  0  0  0  3           0  0  0
   -1.9743   -0.0027    1.2218 C   0  0  0  0  0  4           0  0  0
    4.2251   -0.0425    3.1463 C   0  0  0  0  0  4           0  0  0
    0.0000    0.0000    0.0000 C   0  0  0  0  0  4           0  0  0
   -2.0200   -0.0017   -1.1180 C   0  0  0  0  0  4           0  0  0
    2.3179    0.0000    1.0573 C   0  0  0  0  0  4           0  0  0
   -2.7292   -0.0032    0.0646 C   0  0  0  0  0  4           0  0  0
    4.5155   -0.6345    1.9161 C   0  0  0  0  0  4           0  0  0
    2.9822    0.5686    3.3293 C   0  0  0  0  0  4           0  0  0
    3.5690   -0.6117    0.8852 C   0  0  0  0  0  4           0  0  0
    2.0386    0.5894    2.2975 C   0  0  0  0  0  4           0  0  0
   -4.1877   -0.0068    0.0694 C   0  0  0  0  0  4           0  0  0
   -1.7866   -0.0049    3.5784 C   0  0  0  0  0  4           0  0  0
    4.8536   -1.1470    5.0498 C   0  0  0  0  0  4           0  0  0
   -1.5057    1.4382    3.9581 C   0  0  0  0  0  4           0  0  0
  1  7  1  0     0  0
  1 18  1  0     0  0
  2  8  1  0     0  0
  2 19  1  0     0  0
  3 17  2  0     0  0
  4  7  2  0     0  0
  4  9  1  0     0  0
  5  9  2  0     0  0
  5 10  1  0     0  0
  6  9  1  0     0  0
  6 11  1  0     0  0
  7 12  1  0     0  0
  8 13  2  0     0  0
  8 14  1  0     0  0
 10 12  2  0     0  0
 11 15  2  0     0  0
 11 16  1  0     0  0
 12 17  1  0     0  0
 13 15  1  0     0  0
 14 16  2  0     0  0
 18 20  1  0     0  0
M  END
> <Compound >
27

> <standard_type>
pIC50

> <# Confs.>
25

> <canonical_smiles>
CCOC1=NC(NC2=CC=C(OC)C=C2)=NC=C1C([H])=O

> <standard_relation>
=

> <predicted_activity_value>
5.437992792963539

> <actual_activity_value>
5.721246399047171

> <Publication ID>
nan

> <standard_units>
nM

> hash
3159246324900503560

$$$$
27_
XXILIB    08252103453D 0   0.00000     0.00000

 20 21  0     1  0            999 V2000
   -2.6433   -0.0054    2.4367 O   0  0  0  0  0  2           0  0  0
    5.0618    0.0070    4.2325 O   0  0  0  0  0  2           0  0  0
   -4.8104   -0.0071   -0.9837 O   0  0  0  0  0  2           0  0  0
   -0.6193   -0.0000    1.2056 N   0  0  0  0  0  3           0  0  0
   -0.6714   -0.0005   -1.1771 N   0  0  0  0  0  3           0  0  0
    1.4053    0.0000    0.0000 N   0  0  0  0  0  3           0  0  0
   -1.9743   -0.0027    1.2218 C   0  0  0  0  0  4           0  0  0
    4.2232    0.0469    3.1479 C   0  0  0  0  0  4           0  0  0
    0.0000    0.0000    0.0000 C   0  0  0  0  0  4           0  0  0
   -2.0200   -0.0017   -1.1180 C   0  0  0  0  0  4           0  0  0
    2.3179    0.0000    1.0573 C   0  0  0  0  0  4           0  0  0
   -2.7292   -0.0032    0.0646 C   0  0  0  0  0  4           0  0  0
    4.5142    0.6375    1.9172 C   0  0  0  0  0  4           0  0  0
    2.9810   -0.5659    3.3303 C   0  0  0  0  0  4           0  0  0
    3.5690    0.6117    0.8852 C   0  0  0  0  0  4           0  0  0
    2.0390   -0.5902    2.2972 C   0  0  0  0  0  4           0  0  0
   -4.1877   -0.0068    0.0694 C   0  0  0  0  0  4           0  0  0
   -1.7866   -0.0049    3.5784 C   0  0  0  0  0  4           0  0  0
    4.8456    1.1563    5.0506 C   0  0  0  0  0  4           0  0  0
   -1.5000   -1.4476    3.9549 C   0  0  0  0  0  4           0  0  0
  1  7  1  0     0  0
  1 18  1  0     0  0
  2  8  1  0     0  0
  2 19  1  0     0  0
  3 17  2  0     0  0
  4  7  2  0     0  0
  4  9  1  0     0  0
  5  9  2  0     0  0
  5 10  1  0     0  0
  6  9  1  0     0  0
  6 11  1  0     0  0
  7 12  1  0     0  0
  8 13  2  0     0  0
  8 14  1  0     0  0
 10 12  2  0     0  0
 11 15  2  0     0  0
 11 16  1  0     0  0
 12 17  1  0     0  0
 13 15  1  0     0  0
 14 16  2  0     0  0
 18 20  1  0     0  0
M  END
> <Compound >
27

> <standard_type>
pIC50

> <# Confs.>
25

> <canonical_smiles>
CCOC1=NC(NC2=CC=C(OC)C=C2)=NC=C1C([H])=O

> <standard_relation>
=

> <predicted_activity_value>
5.437992792963539

> <actual_activity_value>
5.721246399047171

> <Publication ID>
nan

> <standard_units>
nM

> hash
3159246324900503560

$$$$
27_
XXILIB    08252103453D 0   0.00000     0.00000

 20 21  0     1  0            999 V2000
   -2.6433   -0.0054    2.4367 O   0  0  0  0  0  2           0  0  0
    5.0618   -0.0070   -4.2325 O   0  0  0  0  0  2           0  0  0
   -4.8104   -0.0071   -0.9837 O   0  0  0  0  0  2           0  0  0
   -0.6193   -0.0000    1.2056 N   0  0  0  0  0  3           0  0  0
   -0.6714   -0.0005   -1.1771 N   0  0  0  0  0  3           0  0  0
    1.4053    0.0000   -0.0000 N   0  0  0  0  0  3           0  0  0
   -1.9743   -0.0027    1.2218 C   0  0  0  0  0  4           0  0  0
    4.2232   -0.0469   -3.1479 C   0  0  0  0  0  4           0  0  0
    0.0000    0.0000    0.0000 C   0  0  0  0  0  4           0  0  0
   -2.0200   -0.0017   -1.1180 C   0  0  0  0  0  4           0  0  0
    2.3179    0.0000   -1.0573 C   0  0  0  0  0  4           0  0  0
   -2.7292   -0.0032    0.0646 C   0  0  0  0  0  4           0  0  0
    4.5142   -0.6375   -1.9172 C   0  0  0  0  0  4           0  0  0
    2.9810    0.5659   -3.3303 C   0  0  0  0  0  4           0  0  0
    3.5690   -0.6117   -0.8852 C   0  0  0  0  0  4           0  0  0
    2.0390    0.5902   -2.2972 C   0  0  0  0  0  4           0  0  0
   -4.1877   -0.0068    0.0694 C   0  0  0  0  0  4           0  0  0
   -1.7866   -0.0049    3.5784 C   0  0  0  0  0  4           0  0  0
    5.8664    1.1704   -4.1756 C   0  0  0  0  0  4           0  0  0
   -1.5000   -1.4476    3.9549 C   0  0  0  0  0  4           0  0  0
  1  7  1  0     0  0
  1 18  1  0     0  0
  2  8  1  0     0  0
  2 19  1  0     0  0
  3 17  2  0     0  0
  4  7  2  0     0  0
  4  9  1  0     0  0
  5  9  2  0     0  0
  5 10  1  0     0  0
  6  9  1  0     0  0
  6 11  1  0     0  0
  7 12  1  0     0  0
  8 13  2  0     0  0
  8 14  1  0     0  0
 10 12  2  0     0  0
 11 15  2  0     0  0
 11 16  1  0     0  0
 12 17  1  0     0  0
 13 15  1  0     0  0
 14 16  2  0     0  0
 18 20  1  0     0  0
M  END
> <Compound >
27

> <standard_type>
pIC50

> <# Confs.>
25

> <canonical_smiles>
CCOC1=NC(NC2=CC=C(OC)C=C2)=NC=C1C([H])=O

> <standard_relation>
=

> <predicted_activity_value>
5.437992792963539

> <actual_activity_value>
5.721246399047171

> <Publication ID>
nan

> <standard_units>
nM

> hash
3159246324900503560

$$$$
27_
XXILIB    08252103453D 0   0.00000     0.00000

 20 21  0     1  0            999 V2000
   -2.6433   -0.0054    2.4367 O   0  0  0  0  0  2           0  0  0
    5.0655   -0.0015   -4.2294 O   0  0  0  0  0  2           0  0  0
   -4.8104   -0.0071   -0.9837 O   0  0  0  0  0  2           0  0  0
   -0.6193   -0.0000    1.2056 N   0  0  0  0  0  3           0  0  0
   -0.6714   -0.0005   -1.1771 N   0  0  0  0  0  3           0  0  0
    1.4053   -0.0000   -0.0000 N   0  0  0  0  0  3           0  0  0
   -1.9743   -0.0027    1.2218 C   0  0  0  0  0  4           0  0  0
    4.2251    0.0425   -3.1463 C   0  0  0  0  0  4           0  0  0
    0.0000    0.0000    0.0000 C   0  0  0  0  0  4           0  0  0
   -2.0200   -0.0017   -1.1180 C   0  0  0  0  0  4           0  0  0
    2.3179    0.0000   -1.0573 C   0  0  0  0  0  4           0  0  0
   -2.7292   -0.0032    0.0646 C   0  0  0  0  0  4           0  0  0
    4.5155    0.6345   -1.9161 C   0  0  0  0  0  4           0  0  0
    2.9822   -0.5686   -3.3293 C   0  0  0  0  0  4           0  0  0
    3.5690    0.6117   -0.8852 C   0  0  0  0  0  4           0  0  0
    2.0386   -0.5894   -2.2975 C   0  0  0  0  0  4           0  0  0
   -4.1877   -0.0068    0.0694 C   0  0  0  0  0  4           0  0  0
   -1.7866   -0.0049    3.5784 C   0  0  0  0  0  4           0  0  0
    5.8670   -1.1808   -4.1689 C   0  0  0  0  0  4           0  0  0
   -1.5057    1.4382    3.9581 C   0  0  0  0  0  4           0  0  0
  1  7  1  0     0  0
  1 18  1  0     0  0
  2  8  1  0     0  0
  2 19  1  0     0  0
  3 17  2  0     0  0
  4  7  2  0     0  0
  4  9  1  0     0  0
  5  9  2  0     0  0
  5 10  1  0     0  0
  6  9  1  0     0  0
  6 11  1  0     0  0
  7 12  1  0     0  0
  8 13  2  0     0  0
  8 14  1  0     0  0
 10 12  2  0     0  0
 11 15  2  0     0  0
 11 16  1  0     0  0
 12 17  1  0     0  0
 13 15  1  0     0  0
 14 16  2  0     0  0
 18 20  1  0     0  0
M  END
> <Compound >
27

> <standard_type>
pIC50

> <# Confs.>
25

> <canonical_smiles>
CCOC1=NC(NC2=CC=C(OC)C=C2)=NC=C1C([H])=O

> <standard_relation>
=

> <predicted_activity_value>
5.437992792963539

> <actual_activity_value>
5.721246399047171

> <Publication ID>
nan

> <standard_units>
nM

> hash
3159246324900503560

$$$$
27_
XXILIB    08252103453D 0   0.00000     0.00000

 20 21  0     1  0            999 V2000
   -2.6433   -0.0054    2.4367 O   0  0  0  0  0  2           0  0  0
    5.0655    0.0015    4.2294 O   0  0  0  0  0  2           0  0  0
   -4.8104   -0.0071   -0.9837 O   0  0  0  0  0  2           0  0  0
   -0.6193   -0.0000    1.2056 N   0  0  0  0  0  3           0  0  0
   -0.6714   -0.0005   -1.1771 N   0  0  0  0  0  3           0  0  0
    1.4053    0.0000    0.0000 N   0  0  0  0  0  3           0  0  0
   -1.9743   -0.0027    1.2218 C   0  0  0  0  0  4           0  0  0
    4.2251   -0.0425    3.1463 C   0  0  0  0  0  4           0  0  0
    0.0000    0.0000    0.0000 C   0  0  0  0  0  4           0  0  0
   -2.0200   -0.0017   -1.1180 C   0  0  0  0  0  4           0  0  0
    2.3179    0.0000    1.0573 C   0  0  0  0  0  4           0  0  0
   -2.7292   -0.0032    0.0646 C   0  0  0  0  0  4           0  0  0
    4.5155   -0.6345    1.9161 C   0  0  0  0  0  4           0  0  0
    2.9822    0.5686    3.3293 C   0  0  0  0  0  4           0  0  0
    3.5690   -0.6117    0.8852 C   0  0  0  0  0  4           0  0  0
    2.0386    0.5894    2.2975 C   0  0  0  0  0  4           0  0  0
   -4.1877   -0.0068    0.0694 C   0  0  0  0  0  4           0  0  0
   -1.7866   -0.0049    3.5784 C   0  0  0  0  0  4           0  0  0
    5.8670    1.1808    4.1689 C   0  0  0  0  0  4           0  0  0
   -1.5000   -1.4476    3.9549 C   0  0  0  0  0  4           0  0  0
  1  7  1  0     0  0
  1 18  1  0     0  0
  2  8  1  0     0  0
  2 19  1  0     0  0
  3 17  2  0     0  0
  4  7  2  0     0  0
  4  9  1  0     0  0
  5  9  2  0     0  0
  5 10  1  0     0  0
  6  9  1  0     0  0
  6 11  1  0     0  0
  7 12  1  0     0  0
  8 13  2  0     0  0
  8 14  1  0     0  0
 10 12  2  0     0  0
 11 15  2  0     0  0
 11 16  1  0     0  0
 12 17  1  0     0  0
 13 15  1  0     0  0
 14 16  2  0     0  0
 18 20  1  0     0  0
M  END
> <Compound >
27

> <standard_type>
pIC50

> <# Confs.>
25

> <canonical_smiles>
CCOC1=NC(NC2=CC=C(OC)C=C2)=NC=C1C([H])=O

> <standard_relation>
=

> <predicted_activity_value>
5.437992792963539

> <actual_activity_value>
5.721246399047171

> <Publication ID>
nan

> <standard_units>
nM

> hash
3159246324900503560

$$$$
27_
XXILIB    08252103453D 0   0.00000     0.00000

 20 21  0     1  0            999 V2000
   -2.6433   -0.0054    2.4367 O   0  0  0  0  0  2           0  0  0
    5.0618    0.0070    4.2325 O   0  0  0  0  0  2           0  0  0
   -4.8104   -0.0071   -0.9837 O   0  0  0  0  0  2           0  0  0
   -0.6193   -0.0000    1.2056 N   0  0  0  0  0  3           0  0  0
   -0.6714   -0.0005   -1.1771 N   0  0  0  0  0  3           0  0  0
    1.4053    0.0000    0.0000 N   0  0  0  0  0  3           0  0  0
   -1.9743   -0.0027    1.2218 C   0  0  0  0  0  4           0  0  0
    4.2232    0.0469    3.1479 C   0  0  0  0  0  4           0  0  0
    0.0000    0.0000    0.0000 C   0  0  0  0  0  4           0  0  0
   -2.0200   -0.0017   -1.1180 C   0  0  0  0  0  4           0  0  0
    2.3179    0.0000    1.0573 C   0  0  0  0  0  4           0  0  0
   -2.7292   -0.0032    0.0646 C   0  0  0  0  0  4           0  0  0
    4.5142    0.6375    1.9172 C   0  0  0  0  0  4           0  0  0
    2.9810   -0.5659    3.3303 C   0  0  0  0  0  4           0  0  0
    3.5690    0.6117    0.8852 C   0  0  0  0  0  4           0  0  0
    2.0390   -0.5902    2.2972 C   0  0  0  0  0  4           0  0  0
   -4.1877   -0.0068    0.0694 C   0  0  0  0  0  4           0  0  0
   -1.7866   -0.0049    3.5784 C   0  0  0  0  0  4           0  0  0
    5.8664   -1.1704    4.1756 C   0  0  0  0  0  4           0  0  0
   -1.5057    1.4382    3.9581 C   0  0  0  0  0  4           0  0  0
  1  7  1  0     0  0
  1 18  1  0     0  0
  2  8  1  0     0  0
  2 19  1  0     0  0
  3 17  2  0     0  0
  4  7  2  0     0  0
  4  9  1  0     0  0
  5  9  2  0     0  0
  5 10  1  0     0  0
  6  9  1  0     0  0
  6 11  1  0     0  0
  7 12  1  0     0  0
  8 13  2  0     0  0
  8 14  1  0     0  0
 10 12  2  0     0  0
 11 15  2  0     0  0
 11 16  1  0     0  0
 12 17  1  0     0  0
 13 15  1  0     0  0
 14 16  2  0     0  0
 18 20  1  0     0  0
M  END
> <Compound >
27

> <standard_type>
pIC50

> <# Confs.>
25

> <canonical_smiles>
CCOC1=NC(NC2=CC=C(OC)C=C2)=NC=C1C([H])=O

> <standard_relation>
=

> <predicted_activity_value>
5.437992792963539

> <actual_activity_value>
5.721246399047171

> <Publication ID>
nan

> <standard_units>
nM

> hash
3159246324900503560

$$$$
27_
XXILIB    08252103453D 0   0.00000     0.00000

 20 21  0     1  0            999 V2000
   -2.6433   -0.0054    2.4367 O   0  0  0  0  0  2           0  0  0
    5.0618   -2.1102    3.6690 O   0  0  0  0  0  2           0  0  0
   -4.8104   -0.0071   -0.9837 O   0  0  0  0  0  2           0  0  0
   -0.6193   -0.0000    1.2056 N   0  0  0  0  0  3           0  0  0
   -0.6714   -0.0005   -1.1771 N   0  0  0  0  0  3           0  0  0
    1.4053   -0.0000    0.0000 N   0  0  0  0  0  3           0  0  0
   -1.9743   -0.0027    1.2218 C   0  0  0  0  0  4           0  0  0
    4.2232   -1.5333    2.7496 C   0  0  0  0  0  4           0  0  0
    0.0000    0.0000    0.0000 C   0  0  0  0  0  4           0  0  0
   -2.0200   -0.0017   -1.1180 C   0  0  0  0  0  4           0  0  0
    2.3179   -0.5286    0.9156 C   0  0  0  0  0  4           0  0  0
   -2.7292   -0.0032    0.0646 C   0  0  0  0  0  4           0  0  0
    4.5142   -0.4065    1.9791 C   0  0  0  0  0  4           0  0  0
    2.9810   -2.1552    2.6012 C   0  0  0  0  0  4           0  0  0
    3.5690    0.0872    1.0725 C   0  0  0  0  0  4           0  0  0
    2.0390   -1.6597    1.6943 C   0  0  0  0  0  4           0  0  0
   -4.1877   -0.0068    0.0694 C   0  0  0  0  0  4           0  0  0
   -1.9406    0.6455    3.4950 C   0  0  0  0  0  4           0  0  0
    6.2887   -1.3832    3.7239 C   0  0  0  0  0  4           0  0  0
   -2.9637    1.2258    4.4551 C   0  0  0  0  0  4           0  0  0
  1  7  1  0     0  0
  1 18  1  0     0  0
  2  8  1  0     0  0
  2 19  1  0     0  0
  3 17  2  0     0  0
  4  7  2  0     0  0
  4  9  1  0     0  0
  5  9  2  0     0  0
  5 10  1  0     0  0
  6  9  1  0     0  0
  6 11  1  0     0  0
  7 12  1  0     0  0
  8 13  2  0     0  0
  8 14  1  0     0  0
 10 12  2  0     0  0
 11 15  2  0     0  0
 11 16  1  0     0  0
 12 17  1  0     0  0
 13 15  1  0     0  0
 14 16  2  0     0  0
 18 20  1  0     0  0
M  END
> <Compound >
27

> <standard_type>
pIC50

> <# Confs.>
25

> <canonical_smiles>
CCOC1=NC(NC2=CC=C(OC)C=C2)=NC=C1C([H])=O

> <standard_relation>
=

> <predicted_activity_value>
5.437992792963539

> <actual_activity_value>
5.721246399047171

> <Publication ID>
nan

> <standard_units>
nM

> hash
3159246324900503560

$$$$
27_
XXILIB    08252103453D 0   0.00000     0.00000

 20 21  0     1  0            999 V2000
   -2.6433   -0.0054    2.4367 O   0  0  0  0  0  2           0  0  0
    5.0655    2.1159    3.6620 O   0  0  0  0  0  2           0  0  0
   -4.8104   -0.0071   -0.9837 O   0  0  0  0  0  2           0  0  0
   -0.6193   -0.0000    1.2056 N   0  0  0  0  0  3           0  0  0
   -0.6714   -0.0005   -1.1771 N   0  0  0  0  0  3           0  0  0
    1.4053    0.0000   -0.0000 N   0  0  0  0  0  3           0  0  0
   -1.9743   -0.0027    1.2218 C   0  0  0  0  0  4           0  0  0
    4.2251    1.5363    2.7460 C   0  0  0  0  0  4           0  0  0
    0.0000    0.0000    0.0000 C   0  0  0  0  0  4           0  0  0
   -2.0200   -0.0017   -1.1180 C   0  0  0  0  0  4           0  0  0
    2.3179    0.5286    0.9156 C   0  0  0  0  0  4           0  0  0
   -2.7292   -0.0032    0.0646 C   0  0  0  0  0  4           0  0  0
    4.5155    0.4085    1.9766 C   0  0  0  0  0  4           0  0  0
    2.9822    2.1570    2.5990 C   0  0  0  0  0  4           0  0  0
    3.5690   -0.0872    1.0725 C   0  0  0  0  0  4           0  0  0
    2.0386    1.6592    1.6950 C   0  0  0  0  0  4           0  0  0
   -4.1877   -0.0068    0.0694 C   0  0  0  0  0  4           0  0  0
   -1.9380   -0.6557    3.4936 C   0  0  0  0  0  4           0  0  0
    6.2935    1.3906    3.7149 C   0  0  0  0  0  4           0  0  0
   -2.9588   -1.2422    4.4525 C   0  0  0  0  0  4           0  0  0
  1  7  1  0     0  0
  1 18  1  0     0  0
  2  8  1  0     0  0
  2 19  1  0     0  0
  3 17  2  0     0  0
  4  7  2  0     0  0
  4  9  1  0     0  0
  5  9  2  0     0  0
  5 10  1  0     0  0
  6  9  1  0     0  0
  6 11  1  0     0  0
  7 12  1  0     0  0
  8 13  2  0     0  0
  8 14  1  0     0  0
 10 12  2  0     0  0
 11 15  2  0     0  0
 11 16  1  0     0  0
 12 17  1  0     0  0
 13 15  1  0     0  0
 14 16  2  0     0  0
 18 20  1  0     0  0
M  END
> <Compound >
27

> <standard_type>
pIC50

> <# Confs.>
25

> <canonical_smiles>
CCOC1=NC(NC2=CC=C(OC)C=C2)=NC=C1C([H])=O

> <standard_relation>
=

> <predicted_activity_value>
5.437992792963539

> <actual_activity_value>
5.721246399047171

> <Publication ID>
nan

> <standard_units>
nM

> hash
3159246324900503560

$$$$
27_
XXILIB    08252103453D 0   0.00000     0.00000

 20 21  0     1  0            999 V2000
   -2.6433   -0.0054    2.4367 O   0  0  0  0  0  2           0  0  0
    5.0618    2.1102   -3.6690 O   0  0  0  0  0  2           0  0  0
   -4.8104   -0.0071   -0.9837 O   0  0  0  0  0  2           0  0  0
   -0.6193   -0.0000    1.2056 N   0  0  0  0  0  3           0  0  0
   -0.6714   -0.0005   -1.1771 N   0  0  0  0  0  3           0  0  0
    1.4053    0.0000   -0.0000 N   0  0  0  0  0  3           0  0  0
   -1.9743   -0.0027    1.2218 C   0  0  0  0  0  4           0  0  0
    4.2232    1.5333   -2.7496 C   0  0  0  0  0  4           0  0  0
    0.0000    0.0000    0.0000 C   0  0  0  0  0  4           0  0  0
   -2.0200   -0.0017   -1.1180 C   0  0  0  0  0  4           0  0  0
    2.3179    0.5286   -0.9156 C   0  0  0  0  0  4           0  0  0
   -2.7292   -0.0032    0.0646 C   0  0  0  0  0  4           0  0  0
    4.5142    0.4065   -1.9791 C   0  0  0  0  0  4           0  0  0
    2.9810    2.1552   -2.6012 C   0  0  0  0  0  4           0  0  0
    3.5690   -0.0872   -1.0725 C   0  0  0  0  0  4           0  0  0
    2.0390    1.6597   -1.6943 C   0  0  0  0  0  4           0  0  0
   -4.1877   -0.0068    0.0694 C   0  0  0  0  0  4           0  0  0
   -1.9406    0.6455    3.4950 C   0  0  0  0  0  4           0  0  0
    6.2887    1.3832   -3.7239 C   0  0  0  0  0  4           0  0  0
   -2.9637    1.2258    4.4551 C   0  0  0  0  0  4           0  0  0
  1  7  1  0     0  0
  1 18  1  0     0  0
  2  8  1  0     0  0
  2 19  1  0     0  0
  3 17  2  0     0  0
  4  7  2  0     0  0
  4  9  1  0     0  0
  5  9  2  0     0  0
  5 10  1  0     0  0
  6  9  1  0     0  0
  6 11  1  0     0  0
  7 12  1  0     0  0
  8 13  2  0     0  0
  8 14  1  0     0  0
 10 12  2  0     0  0
 11 15  2  0     0  0
 11 16  1  0     0  0
 12 17  1  0     0  0
 13 15  1  0     0  0
 14 16  2  0     0  0
 18 20  1  0     0  0
M  END
> <Compound >
27

> <standard_type>
pIC50

> <# Confs.>
25

> <canonical_smiles>
CCOC1=NC(NC2=CC=C(OC)C=C2)=NC=C1C([H])=O

> <standard_relation>
=

> <predicted_activity_value>
5.437992792963539

> <actual_activity_value>
5.721246399047171

> <Publication ID>
nan

> <standard_units>
nM

> hash
3159246324900503560

$$$$
28_
XXILIB    08252103453D 0   0.00000     0.00000

 19 20  0     1  0            999 V2000
    1.9485    0.0082   -3.4949 O   0  0  0  0  0  2           0  0  0
    0.0000    0.0000    0.0000 O   0  0  0  0  0  2           0  0  0
    0.0639   -0.0340   -2.3478 O   0  5  0  0  0  1           0  0  0
    2.0532   -0.0000    1.1711 N   0  0  0  0  0  3           0  0  0
    4.1068    0.0244   -0.0500 N   0  0  0  0  0  3           0  0  0
    1.2972   -0.0056   -2.4429 N   0  3  0  0  0  4           0  0  0
    4.1114   -0.0032    2.3017 N   0  0  0  0  0  3           0  0  0
    4.1609    0.0054   -2.4063 N   0  0  0  0  0  3           0  0  0
    1.3821    0.0000    0.0000 C   0  0  0  0  0  4           0  0  0
    3.4040    0.0086    1.1104 C   0  0  0  0  0  4           0  0  0
    3.4305    0.0415   -1.2233 C   0  0  0  0  0  4           0  0  0
    2.0434    0.0135   -1.2154 C   0  0  0  0  0  4           0  0  0
   -0.5856    0.0000    1.3016 C   0  0  0  0  0  4           0  0  0
   -2.1084   -0.0000    1.1822 C   0  0  2  0  0  4           0  0  0
   -2.6130   -1.2390    0.4250 C   0  0  0  0  0  4           0  0  0
   -2.6214    1.2814    0.5056 C   0  0  0  0  0  4           0  0  0
   -4.1357   -1.2419    0.3048 C   0  0  0  0  0  4           0  0  0
   -4.1442    1.2813    0.3856 C   0  0  0  0  0  4           0  0  0
   -4.6513    0.0400   -0.3419 C   0  0  0  0  0  4           0  0  0
  1  6  2  0     0  0
  2  9  1  0     0  0
  2 13  1  0     0  0
  3  6  1  0     0  0
  4  9  2  0     0  0
  4 10  1  0     0  0
  5 10  2  0     0  0
  5 11  1  0     0  0
  6 12  1  0     0  0
  7 10  1  0     0  0
  8 11  1  0     0  0
  9 12  1  0     0  0
 11 12  2  0     0  0
 13 14  1  0     0  0
 14 15  1  0     0  0
 14 16  1  0     0  0
 15 17  1  0     0  0
 16 18  1  0     0  0
 17 19  1  0     0  0
 18 19  1  0     0  0
M  CHG  2   3  -1   6   1
M  END
> <Compound >
28

> <standard_type>
pIC50

> <# Confs.>
25

> <canonical_smiles>
NC1=NC(N)=C([N+]([O-])=O)C(OCC2CCCCC2)=N1

> <standard_relation>
=

> <predicted_activity_value>
4.659238708237328

> <actual_activity_value>
5.080921907623926

> <Publication ID>
nan

> <standard_units>
nM

> hash
14640230452705308439

$$$$
28_
XXILIB    08252103453D 0   0.00000     0.00000

 19 20  0     1  0            999 V2000
    1.9485    0.0082   -3.4949 O   0  0  0  0  0  2           0  0  0
    0.0000    0.0000    0.0000 O   0  0  0  0  0  2           0  0  0
    0.0639   -0.0340   -2.3478 O   0  5  0  0  0  1           0  0  0
    2.0532   -0.0000    1.1711 N   0  0  0  0  0  3           0  0  0
    4.1068    0.0244   -0.0500 N   0  0  0  0  0  3           0  0  0
    1.2972   -0.0056   -2.4429 N   0  3  0  0  0  4           0  0  0
    4.1114   -0.0032    2.3017 N   0  0  0  0  0  3           0  0  0
    4.1609    0.0054   -2.4063 N   0  0  0  0  0  3           0  0  0
    1.3821    0.0000    0.0000 C   0  0  0  0  0  4           0  0  0
    3.4040    0.0086    1.1104 C   0  0  0  0  0  4           0  0  0
    3.4305    0.0415   -1.2233 C   0  0  0  0  0  4           0  0  0
    2.0434    0.0135   -1.2154 C   0  0  0  0  0  4           0  0  0
   -0.5856    0.0000    1.3016 C   0  0  0  0  0  4           0  0  0
   -2.1084   -0.0000    1.1822 C   0  0  2  0  0  4           0  0  0
   -2.6130    1.2390    0.4250 C   0  0  0  0  0  4           0  0  0
   -2.7826   -0.0913    2.5605 C   0  0  0  0  0  4           0  0  0
   -4.1356    1.2411    0.3035 C   0  0  0  0  0  4           0  0  0
   -4.3055   -0.0908    2.4413 C   0  0  0  0  0  4           0  0  0
   -4.8090    1.1236    1.6673 C   0  0  0  0  0  4           0  0  0
  1  6  2  0     0  0
  2  9  1  0     0  0
  2 13  1  0     0  0
  3  6  1  0     0  0
  4  9  2  0     0  0
  4 10  1  0     0  0
  5 10  2  0     0  0
  5 11  1  0     0  0
  6 12  1  0     0  0
  7 10  1  0     0  0
  8 11  1  0     0  0
  9 12  1  0     0  0
 11 12  2  0     0  0
 13 14  1  0     0  0
 14 15  1  0     0  0
 14 16  1  0     0  0
 15 17  1  0     0  0
 16 18  1  0     0  0
 17 19  1  0     0  0
 18 19  1  0     0  0
M  CHG  2   3  -1   6   1
M  END
> <Compound >
28

> <standard_type>
pIC50

> <# Confs.>
25

> <canonical_smiles>
NC1=NC(N)=C([N+]([O-])=O)C(OCC2CCCCC2)=N1

> <standard_relation>
=

> <predicted_activity_value>
4.659238708237328

> <actual_activity_value>
5.080921907623926

> <Publication ID>
nan

> <standard_units>
nM

> hash
14640230452705308439

$$$$
28_
XXILIB    08252103453D 0   0.00000     0.00000

 19 20  0     1  0            999 V2000
    1.9485    0.0082   -3.4949 O   0  0  0  0  0  2           0  0  0
    0.0000    0.0000    0.0000 O   0  0  0  0  0  2           0  0  0
    0.0639   -0.0340   -2.3478 O   0  5  0  0  0  1           0  0  0
    2.0532   -0.0000    1.1711 N   0  0  0  0  0  3           0  0  0
    4.1068    0.0244   -0.0500 N   0  0  0  0  0  3           0  0  0
    1.2972   -0.0056   -2.4429 N   0  3  0  0  0  4           0  0  0
    4.1114   -0.0032    2.3017 N   0  0  0  0  0  3           0  0  0
    4.1609    0.0054   -2.4063 N   0  0  0  0  0  3           0  0  0
    1.3821    0.0000    0.0000 C   0  0  0  0  0  4           0  0  0
    3.4040    0.0086    1.1104 C   0  0  0  0  0  4           0  0  0
    3.4305    0.0415   -1.2233 C   0  0  0  0  0  4           0  0  0
    2.0434    0.0135   -1.2154 C   0  0  0  0  0  4           0  0  0
   -0.5856    0.0000    1.3016 C   0  0  0  0  0  4           0  0  0
   -2.1084   -0.0000    1.1822 C   0  0  2  0  0  4           0  0  0
   -2.7809    0.0000    2.5645 C   0  0  0  0  0  4           0  0  0
   -2.6090   -1.1900    0.3479 C   0  0  0  0  0  4           0  0  0
   -4.3039    0.0008    2.4479 C   0  0  0  0  0  4           0  0  0
   -4.1319   -1.1905    0.2288 C   0  0  0  0  0  4           0  0  0
   -4.8036   -1.1636    1.5983 C   0  0  0  0  0  4           0  0  0
  1  6  2  0     0  0
  2  9  1  0     0  0
  2 13  1  0     0  0
  3  6  1  0     0  0
  4  9  2  0     0  0
  4 10  1  0     0  0
  5 10  2  0     0  0
  5 11  1  0     0  0
  6 12  1  0     0  0
  7 10  1  0     0  0
  8 11  1  0     0  0
  9 12  1  0     0  0
 11 12  2  0     0  0
 13 14  1  0     0  0
 14 15  1  0     0  0
 14 16  1  0     0  0
 15 17  1  0     0  0
 16 18  1  0     0  0
 17 19  1  0     0  0
 18 19  1  0     0  0
M  CHG  2   3  -1   6   1
M  END
> <Compound >
28

> <standard_type>
pIC50

> <# Confs.>
25

> <canonical_smiles>
NC1=NC(N)=C([N+]([O-])=O)C(OCC2CCCCC2)=N1

> <standard_relation>
=

> <predicted_activity_value>
4.659238708237328

> <actual_activity_value>
5.080921907623926

> <Publication ID>
nan

> <standard_units>
nM

> hash
14640230452705308439

$$$$
28_
XXILIB    08252103453D 0   0.00000     0.00000

 19 20  0     1  0            999 V2000
    1.9485    0.0082   -3.4949 O   0  0  0  0  0  2           0  0  0
    0.0000    0.0000    0.0000 O   0  0  0  0  0  2           0  0  0
    0.0639   -0.0340   -2.3478 O   0  5  0  0  0  1           0  0  0
    2.0532   -0.0000    1.1711 N   0  0  0  0  0  3           0  0  0
    4.1068    0.0244   -0.0500 N   0  0  0  0  0  3           0  0  0
    1.2972   -0.0056   -2.4429 N   0  3  0  0  0  4           0  0  0
    4.1114   -0.0032    2.3017 N   0  0  0  0  0  3           0  0  0
    4.1609    0.0054   -2.4063 N   0  0  0  0  0  3           0  0  0
    1.3821    0.0000    0.0000 C   0  0  0  0  0  4           0  0  0
    3.4040    0.0086    1.1104 C   0  0  0  0  0  4           0  0  0
    3.4305    0.0415   -1.2233 C   0  0  0  0  0  4           0  0  0
    2.0434    0.0135   -1.2154 C   0  0  0  0  0  4           0  0  0
   -0.5856    0.0000    1.3016 C   0  0  0  0  0  4           0  0  0
   -2.1084   -0.0000    1.1822 C   0  0  2  0  0  4           0  0  0
   -2.6404    1.2316    0.4272 C   0  0  0  0  0  4           0  0  0
   -2.7786   -0.1151    2.5594 C   0  0  0  0  0  4           0  0  0
   -2.5435    2.5191    1.2445 C   0  0  0  0  0  4           0  0  0
   -2.6751    1.1700    3.3789 C   0  0  0  0  0  4           0  0  0
   -3.2135    2.3712    2.6073 C   0  0  0  0  0  4           0  0  0
  1  6  2  0     0  0
  2  9  1  0     0  0
  2 13  1  0     0  0
  3  6  1  0     0  0
  4  9  2  0     0  0
  4 10  1  0     0  0
  5 10  2  0     0  0
  5 11  1  0     0  0
  6 12  1  0     0  0
  7 10  1  0     0  0
  8 11  1  0     0  0
  9 12  1  0     0  0
 11 12  2  0     0  0
 13 14  1  0     0  0
 14 15  1  0     0  0
 14 16  1  0     0  0
 15 17  1  0     0  0
 16 18  1  0     0  0
 17 19  1  0     0  0
 18 19  1  0     0  0
M  CHG  2   3  -1   6   1
M  END
> <Compound >
28

> <standard_type>
pIC50

> <# Confs.>
25

> <canonical_smiles>
NC1=NC(N)=C([N+]([O-])=O)C(OCC2CCCCC2)=N1

> <standard_relation>
=

> <predicted_activity_value>
4.659238708237328

> <actual_activity_value>
5.080921907623926

> <Publication ID>
nan

> <standard_units>
nM

> hash
14640230452705308439

$$$$
28_
XXILIB    08252103453D 0   0.00000     0.00000

 19 20  0     1  0            999 V2000
    1.9485    0.0082   -3.4949 O   0  0  0  0  0  2           0  0  0
    0.0000    0.0000    0.0000 O   0  0  0  0  0  2           0  0  0
    0.0639   -0.0340   -2.3478 O   0  5  0  0  0  1           0  0  0
    2.0532   -0.0000    1.1711 N   0  0  0  0  0  3           0  0  0
    4.1068    0.0244   -0.0500 N   0  0  0  0  0  3           0  0  0
    1.2972   -0.0056   -2.4429 N   0  3  0  0  0  4           0  0  0
    4.1114   -0.0032    2.3017 N   0  0  0  0  0  3           0  0  0
    4.1609    0.0054   -2.4063 N   0  0  0  0  0  3           0  0  0
    1.3821    0.0000    0.0000 C   0  0  0  0  0  4           0  0  0
    3.4040    0.0086    1.1104 C   0  0  0  0  0  4           0  0  0
    3.4305    0.0415   -1.2233 C   0  0  0  0  0  4           0  0  0
    2.0434    0.0135   -1.2154 C   0  0  0  0  0  4           0  0  0
   -0.5856    0.0000    1.3016 C   0  0  0  0  0  4           0  0  0
   -2.1084   -0.0000    1.1822 C   0  0  2  0  0  4           0  0  0
   -2.8072    0.0000    2.5539 C   0  0  0  0  0  4           0  0  0
   -2.6036   -1.1769    0.3284 C   0  0  0  0  0  4           0  0  0
   -2.7029   -1.3428    3.2756 C   0  0  0  0  0  4           0  0  0
   -2.4922   -2.5200    1.0478 C   0  0  0  0  0  4           0  0  0
   -3.1973   -2.4909    2.4007 C   0  0  0  0  0  4           0  0  0
  1  6  2  0     0  0
  2  9  1  0     0  0
  2 13  1  0     0  0
  3  6  1  0     0  0
  4  9  2  0     0  0
  4 10  1  0     0  0
  5 10  2  0     0  0
  5 11  1  0     0  0
  6 12  1  0     0  0
  7 10  1  0     0  0
  8 11  1  0     0  0
  9 12  1  0     0  0
 11 12  2  0     0  0
 13 14  1  0     0  0
 14 15  1  0     0  0
 14 16  1  0     0  0
 15 17  1  0     0  0
 16 18  1  0     0  0
 17 19  1  0     0  0
 18 19  1  0     0  0
M  CHG  2   3  -1   6   1
M  END
> <Compound >
28

> <standard_type>
pIC50

> <# Confs.>
25

> <canonical_smiles>
NC1=NC(N)=C([N+]([O-])=O)C(OCC2CCCCC2)=N1

> <standard_relation>
=

> <predicted_activity_value>
4.659238708237328

> <actual_activity_value>
5.080921907623926

> <Publication ID>
nan

> <standard_units>
nM

> hash
14640230452705308439

$$$$
28_
XXILIB    08252103453D 0   0.00000     0.00000

 19 20  0     1  0            999 V2000
    1.9485    0.0082   -3.4949 O   0  0  0  0  0  2           0  0  0
    0.0000    0.0000    0.0000 O   0  0  0  0  0  2           0  0  0
    0.0639   -0.0340   -2.3478 O   0  5  0  0  0  1           0  0  0
    2.0532   -0.0000    1.1711 N   0  0  0  0  0  3           0  0  0
    4.1068    0.0244   -0.0500 N   0  0  0  0  0  3           0  0  0
    1.2972   -0.0056   -2.4429 N   0  3  0  0  0  4           0  0  0
    4.1114   -0.0032    2.3017 N   0  0  0  0  0  3           0  0  0
    4.1609    0.0054   -2.4063 N   0  0  0  0  0  3           0  0  0
    1.3821    0.0000    0.0000 C   0  0  0  0  0  4           0  0  0
    3.4040    0.0086    1.1104 C   0  0  0  0  0  4           0  0  0
    3.4305    0.0415   -1.2233 C   0  0  0  0  0  4           0  0  0
    2.0434    0.0135   -1.2154 C   0  0  0  0  0  4           0  0  0
   -0.5856    0.0000    1.3016 C   0  0  0  0  0  4           0  0  0
   -2.1084   -0.0000    1.1822 C   0  0  2  0  0  4           0  0  0
   -2.6506   -1.2270    0.4291 C   0  0  0  0  0  4           0  0  0
   -2.8160    0.1821    2.5360 C   0  0  0  0  0  4           0  0  0
   -2.7585   -2.4918    1.2776 C   0  0  0  0  0  4           0  0  0
   -2.9252   -1.0929    3.3691 C   0  0  0  0  0  4           0  0  0
   -3.5273   -2.2413    2.5690 C   0  0  0  0  0  4           0  0  0
  1  6  2  0     0  0
  2  9  1  0     0  0
  2 13  1  0     0  0
  3  6  1  0     0  0
  4  9  2  0     0  0
  4 10  1  0     0  0
  5 10  2  0     0  0
  5 11  1  0     0  0
  6 12  1  0     0  0
  7 10  1  0     0  0
  8 11  1  0     0  0
  9 12  1  0     0  0
 11 12  2  0     0  0
 13 14  1  0     0  0
 14 15  1  0     0  0
 14 16  1  0     0  0
 15 17  1  0     0  0
 16 18  1  0     0  0
 17 19  1  0     0  0
 18 19  1  0     0  0
M  CHG  2   3  -1   6   1
M  END
> <Compound >
28

> <standard_type>
pIC50

> <# Confs.>
25

> <canonical_smiles>
NC1=NC(N)=C([N+]([O-])=O)C(OCC2CCCCC2)=N1

> <standard_relation>
=

> <predicted_activity_value>
4.659238708237328

> <actual_activity_value>
5.080921907623926

> <Publication ID>
nan

> <standard_units>
nM

> hash
14640230452705308439

$$$$
28_
XXILIB    08252103453D 0   0.00000     0.00000

 19 20  0     1  0            999 V2000
    1.9485    0.0082   -3.4949 O   0  0  0  0  0  2           0  0  0
    0.0000    0.0000    0.0000 O   0  0  0  0  0  2           0  0  0
    0.0639   -0.0340   -2.3478 O   0  5  0  0  0  1           0  0  0
    2.0532   -0.0000    1.1711 N   0  0  0  0  0  3           0  0  0
    4.1068    0.0244   -0.0500 N   0  0  0  0  0  3           0  0  0
    1.2972   -0.0056   -2.4429 N   0  3  0  0  0  4           0  0  0
    4.1114   -0.0032    2.3017 N   0  0  0  0  0  3           0  0  0
    4.1609    0.0054   -2.4063 N   0  0  0  0  0  3           0  0  0
    1.3821    0.0000    0.0000 C   0  0  0  0  0  4           0  0  0
    3.4040    0.0086    1.1104 C   0  0  0  0  0  4           0  0  0
    3.4305    0.0415   -1.2233 C   0  0  0  0  0  4           0  0  0
    2.0434    0.0135   -1.2154 C   0  0  0  0  0  4           0  0  0
   -0.5856    0.0000    1.3016 C   0  0  0  0  0  4           0  0  0
   -2.1084   -0.0000    1.1822 C   0  0  2  0  0  4           0  0  0
   -2.8168    0.0000    2.5478 C   0  0  0  0  0  4           0  0  0
   -2.6389    1.1257    0.2777 C   0  0  0  0  0  4           0  0  0
   -2.9101    1.3723    3.2107 C   0  0  0  0  0  4           0  0  0
   -2.7360    2.4899    0.9568 C   0  0  0  0  0  4           0  0  0
   -3.5039    2.4141    2.2706 C   0  0  0  0  0  4           0  0  0
  1  6  2  0     0  0
  2  9  1  0     0  0
  2 13  1  0     0  0
  3  6  1  0     0  0
  4  9  2  0     0  0
  4 10  1  0     0  0
  5 10  2  0     0  0
  5 11  1  0     0  0
  6 12  1  0     0  0
  7 10  1  0     0  0
  8 11  1  0     0  0
  9 12  1  0     0  0
 11 12  2  0     0  0
 13 14  1  0     0  0
 14 15  1  0     0  0
 14 16  1  0     0  0
 15 17  1  0     0  0
 16 18  1  0     0  0
 17 19  1  0     0  0
 18 19  1  0     0  0
M  CHG  2   3  -1   6   1
M  END
> <Compound >
28

> <standard_type>
pIC50

> <# Confs.>
25

> <canonical_smiles>
NC1=NC(N)=C([N+]([O-])=O)C(OCC2CCCCC2)=N1

> <standard_relation>
=

> <predicted_activity_value>
4.659238708237328

> <actual_activity_value>
5.080921907623926

> <Publication ID>
nan

> <standard_units>
nM

> hash
14640230452705308439

$$$$
28_
XXILIB    08252103453D 0   0.00000     0.00000

 19 20  0     1  0            999 V2000
    1.9485    0.0082   -3.4949 O   0  0  0  0  0  2           0  0  0
    0.0000    0.0000    0.0000 O   0  0  0  0  0  2           0  0  0
    0.0639   -0.0340   -2.3478 O   0  5  0  0  0  1           0  0  0
    2.0532   -0.0000    1.1711 N   0  0  0  0  0  3           0  0  0
    4.1068    0.0244   -0.0500 N   0  0  0  0  0  3           0  0  0
    1.2972   -0.0056   -2.4429 N   0  3  0  0  0  4           0  0  0
    4.1114   -0.0032    2.3017 N   0  0  0  0  0  3           0  0  0
    4.1609    0.0054   -2.4063 N   0  0  0  0  0  3           0  0  0
    1.3821    0.0000    0.0000 C   0  0  0  0  0  4           0  0  0
    3.4040    0.0086    1.1104 C   0  0  0  0  0  4           0  0  0
    3.4305    0.0415   -1.2233 C   0  0  0  0  0  4           0  0  0
    2.0434    0.0135   -1.2154 C   0  0  0  0  0  4           0  0  0
   -0.5856    0.0000    1.3016 C   0  0  0  0  0  4           0  0  0
   -0.7973   -1.4377    1.7721 C   0  0  2  0  0  4           0  0  0
   -1.7289   -2.2085    0.8228 C   0  0  0  0  0  4           0  0  0
   -1.3432   -1.4870    3.2081 C   0  0  0  0  0  4           0  0  0
   -1.9416   -3.6470    1.2906 C   0  0  0  0  0  4           0  0  0
   -1.5554   -2.9247    3.6786 C   0  0  0  0  0  4           0  0  0
   -2.4581   -3.7014    2.7250 C   0  0  0  0  0  4           0  0  0
  1  6  2  0     0  0
  2  9  1  0     0  0
  2 13  1  0     0  0
  3  6  1  0     0  0
  4  9  2  0     0  0
  4 10  1  0     0  0
  5 10  2  0     0  0
  5 11  1  0     0  0
  6 12  1  0     0  0
  7 10  1  0     0  0
  8 11  1  0     0  0
  9 12  1  0     0  0
 11 12  2  0     0  0
 13 14  1  0     0  0
 14 15  1  0     0  0
 14 16  1  0     0  0
 15 17  1  0     0  0
 16 18  1  0     0  0
 17 19  1  0     0  0
 18 19  1  0     0  0
M  CHG  2   3  -1   6   1
M  END
> <Compound >
28

> <standard_type>
pIC50

> <# Confs.>
25

> <canonical_smiles>
NC1=NC(N)=C([N+]([O-])=O)C(OCC2CCCCC2)=N1

> <standard_relation>
=

> <predicted_activity_value>
4.659238708237328

> <actual_activity_value>
5.080921907623926

> <Publication ID>
nan

> <standard_units>
nM

> hash
14640230452705308439

$$$$
28_
XXILIB    08252103453D 0   0.00000     0.00000

 19 20  0     1  0            999 V2000
    1.9485   -1.7404   -3.0308 O   0  0  0  0  0  2           0  0  0
    0.0000    0.0000   -0.0000 O   0  0  0  0  0  2           0  0  0
    0.0639   -1.2034   -2.0163 O   0  5  0  0  0  1           0  0  0
    2.0532    0.5855    1.0142 N   0  0  0  0  0  3           0  0  0
    4.1068   -0.0038   -0.0555 N   0  0  0  0  0  3           0  0  0
    1.2972   -1.2263   -2.1128 N   0  3  0  0  0  4           0  0  0
    4.1114    1.1481    1.9950 N   0  0  0  0  0  3           0  0  0
    4.1609   -1.1985   -2.0866 N   0  0  0  0  0  3           0  0  0
    1.3821    0.0000    0.0000 C   0  0  0  0  0  4           0  0  0
    3.4040    0.5626    0.9573 C   0  0  0  0  0  4           0  0  0
    3.4305   -0.5757   -1.0802 C   0  0  0  0  0  4           0  0  0
    2.0434   -0.5960   -1.0593 C   0  0  0  0  0  4           0  0  0
   -0.5856    0.0000    1.3016 C   0  0  0  0  0  4           0  0  0
   -1.9328    0.7189    1.2612 C   0  0  2  0  0  4           0  0  0
   -2.9081    0.0312    0.2923 C   0  0  0  0  0  4           0  0  0
   -1.7704    2.2013    0.8885 C   0  0  0  0  0  4           0  0  0
   -4.2565    0.7478    0.2505 C   0  0  0  0  0  4           0  0  0
   -3.1175    2.9202    0.8475 C   0  0  0  0  0  4           0  0  0
   -4.0977    2.2257   -0.0928 C   0  0  0  0  0  4           0  0  0
  1  6  2  0     0  0
  2  9  1  0     0  0
  2 13  1  0     0  0
  3  6  1  0     0  0
  4  9  2  0     0  0
  4 10  1  0     0  0
  5 10  2  0     0  0
  5 11  1  0     0  0
  6 12  1  0     0  0
  7 10  1  0     0  0
  8 11  1  0     0  0
  9 12  1  0     0  0
 11 12  2  0     0  0
 13 14  1  0     0  0
 14 15  1  0     0  0
 14 16  1  0     0  0
 15 17  1  0     0  0
 16 18  1  0     0  0
 17 19  1  0     0  0
 18 19  1  0     0  0
M  CHG  2   3  -1   6   1
M  END
> <Compound >
28

> <standard_type>
pIC50

> <# Confs.>
25

> <canonical_smiles>
NC1=NC(N)=C([N+]([O-])=O)C(OCC2CCCCC2)=N1

> <standard_relation>
=

> <predicted_activity_value>
4.659238708237328

> <actual_activity_value>
5.080921907623926

> <Publication ID>
nan

> <standard_units>
nM

> hash
14640230452705308439

$$$$
28_
XXILIB    08252103453D 0   0.00000     0.00000

 19 20  0     1  0            999 V2000
    1.9485   -1.7404   -3.0308 O   0  0  0  0  0  2           0  0  0
    0.0000    0.0000   -0.0000 O   0  0  0  0  0  2           0  0  0
    0.0639   -1.2034   -2.0163 O   0  5  0  0  0  1           0  0  0
    2.0532    0.5855    1.0142 N   0  0  0  0  0  3           0  0  0
    4.1068   -0.0038   -0.0555 N   0  0  0  0  0  3           0  0  0
    1.2972   -1.2263   -2.1128 N   0  3  0  0  0  4           0  0  0
    4.1114    1.1481    1.9950 N   0  0  0  0  0  3           0  0  0
    4.1609   -1.1985   -2.0866 N   0  0  0  0  0  3           0  0  0
    1.3821    0.0000    0.0000 C   0  0  0  0  0  4           0  0  0
    3.4040    0.5626    0.9573 C   0  0  0  0  0  4           0  0  0
    3.4305   -0.5757   -1.0802 C   0  0  0  0  0  4           0  0  0
    2.0434   -0.5960   -1.0593 C   0  0  0  0  0  4           0  0  0
   -0.5856    0.0000    1.3016 C   0  0  0  0  0  4           0  0  0
   -1.9328    0.7189    1.2612 C   0  0  2  0  0  4           0  0  0
   -1.7782    2.1773    0.8006 C   0  0  0  0  0  4           0  0  0
   -2.6426    0.6644    2.6235 C   0  0  0  0  0  4           0  0  0
   -3.1242    2.8983    0.7586 C   0  0  0  0  0  4           0  0  0
   -3.9895    1.3837    2.5834 C   0  0  0  0  0  4           0  0  0
   -3.8444    2.8238    2.1013 C   0  0  0  0  0  4           0  0  0
  1  6  2  0     0  0
  2  9  1  0     0  0
  2 13  1  0     0  0
  3  6  1  0     0  0
  4  9  2  0     0  0
  4 10  1  0     0  0
  5 10  2  0     0  0
  5 11  1  0     0  0
  6 12  1  0     0  0
  7 10  1  0     0  0
  8 11  1  0     0  0
  9 12  1  0     0  0
 11 12  2  0     0  0
 13 14  1  0     0  0
 14 15  1  0     0  0
 14 16  1  0     0  0
 15 17  1  0     0  0
 16 18  1  0     0  0
 17 19  1  0     0  0
 18 19  1  0     0  0
M  CHG  2   3  -1   6   1
M  END
> <Compound >
28

> <standard_type>
pIC50

> <# Confs.>
25

> <canonical_smiles>
NC1=NC(N)=C([N+]([O-])=O)C(OCC2CCCCC2)=N1

> <standard_relation>
=

> <predicted_activity_value>
4.659238708237328

> <actual_activity_value>
5.080921907623926

> <Publication ID>
nan

> <standard_units>
nM

> hash
14640230452705308439

$$$$
28_
XXILIB    08252103453D 0   0.00000     0.00000

 19 20  0     1  0            999 V2000
    1.9485   -1.7404   -3.0308 O   0  0  0  0  0  2           0  0  0
    0.0000    0.0000   -0.0000 O   0  0  0  0  0  2           0  0  0
    0.0639   -1.2034   -2.0163 O   0  5  0  0  0  1           0  0  0
    2.0532    0.5855    1.0142 N   0  0  0  0  0  3           0  0  0
    4.1068   -0.0038   -0.0555 N   0  0  0  0  0  3           0  0  0
    1.2972   -1.2263   -2.1128 N   0  3  0  0  0  4           0  0  0
    4.1114    1.1481    1.9950 N   0  0  0  0  0  3           0  0  0
    4.1609   -1.1985   -2.0866 N   0  0  0  0  0  3           0  0  0
    1.3821    0.0000    0.0000 C   0  0  0  0  0  4           0  0  0
    3.4040    0.5626    0.9573 C   0  0  0  0  0  4           0  0  0
    3.4305   -0.5757   -1.0802 C   0  0  0  0  0  4           0  0  0
    2.0434   -0.5960   -1.0593 C   0  0  0  0  0  4           0  0  0
   -0.5856    0.0000    1.3016 C   0  0  0  0  0  4           0  0  0
   -1.9328    0.7189    1.2612 C   0  0  2  0  0  4           0  0  0
   -2.5996    0.7419    2.6461 C   0  0  0  0  0  4           0  0  0
   -2.8784    0.0877    0.2267 C   0  0  0  0  0  4           0  0  0
   -3.9467    1.4610    2.6086 C   0  0  0  0  0  4           0  0  0
   -4.2258    0.8061    0.1865 C   0  0  0  0  0  4           0  0  0
   -4.8790    0.8547    1.5644 C   0  0  0  0  0  4           0  0  0
  1  6  2  0     0  0
  2  9  1  0     0  0
  2 13  1  0     0  0
  3  6  1  0     0  0
  4  9  2  0     0  0
  4 10  1  0     0  0
  5 10  2  0     0  0
  5 11  1  0     0  0
  6 12  1  0     0  0
  7 10  1  0     0  0
  8 11  1  0     0  0
  9 12  1  0     0  0
 11 12  2  0     0  0
 13 14  1  0     0  0
 14 15  1  0     0  0
 14 16  1  0     0  0
 15 17  1  0     0  0
 16 18  1  0     0  0
 17 19  1  0     0  0
 18 19  1  0     0  0
M  CHG  2   3  -1   6   1
M  END
> <Compound >
28

> <standard_type>
pIC50

> <# Confs.>
25

> <canonical_smiles>
NC1=NC(N)=C([N+]([O-])=O)C(OCC2CCCCC2)=N1

> <standard_relation>
=

> <predicted_activity_value>
4.659238708237328

> <actual_activity_value>
5.080921907623926

> <Publication ID>
nan

> <standard_units>
nM

> hash
14640230452705308439

$$$$
28_
XXILIB    08252103453D 0   0.00000     0.00000

 19 20  0     1  0            999 V2000
    1.9485    1.7545   -3.0226 O   0  0  0  0  0  2           0  0  0
    0.0000    0.0000    0.0000 O   0  0  0  0  0  2           0  0  0
    0.0639    1.1445   -2.0503 O   0  5  0  0  0  1           0  0  0
    2.0532   -0.5855    1.0142 N   0  0  0  0  0  3           0  0  0
    4.1068    0.0461   -0.0310 N   0  0  0  0  0  3           0  0  0
    1.2972    1.2166   -2.1184 N   0  3  0  0  0  4           0  0  0
    4.1114   -1.1537    1.9917 N   0  0  0  0  0  3           0  0  0
    4.1609    1.2078   -2.0812 N   0  0  0  0  0  3           0  0  0
    1.3821    0.0000    0.0000 C   0  0  0  0  0  4           0  0  0
    3.4040   -0.5478    0.9659 C   0  0  0  0  0  4           0  0  0
    3.4305    0.6476   -1.0387 C   0  0  0  0  0  4           0  0  0
    2.0434    0.6194   -1.0458 C   0  0  0  0  0  4           0  0  0
   -0.5856    0.0000    1.3016 C   0  0  0  0  0  4           0  0  0
   -1.9328   -0.7189    1.2612 C   0  0  2  0  0  4           0  0  0
   -1.7782   -2.1773    0.8006 C   0  0  0  0  0  4           0  0  0
   -2.9389    0.0181    0.3628 C   0  0  0  0  0  4           0  0  0
   -3.1240   -2.8987    0.7601 C   0  0  0  0  0  4           0  0  0
   -4.2860   -0.7009    0.3218 C   0  0  0  0  0  4           0  0  0
   -4.1342   -2.1564   -0.1092 C   0  0  0  0  0  4           0  0  0
  1  6  2  0     0  0
  2  9  1  0     0  0
  2 13  1  0     0  0
  3  6  1  0     0  0
  4  9  2  0     0  0
  4 10  1  0     0  0
  5 10  2  0     0  0
  5 11  1  0     0  0
  6 12  1  0     0  0
  7 10  1  0     0  0
  8 11  1  0     0  0
  9 12  1  0     0  0
 11 12  2  0     0  0
 13 14  1  0     0  0
 14 15  1  0     0  0
 14 16  1  0     0  0
 15 17  1  0     0  0
 16 18  1  0     0  0
 17 19  1  0     0  0
 18 19  1  0     0  0
M  CHG  2   3  -1   6   1
M  END
> <Compound >
28

> <standard_type>
pIC50

> <# Confs.>
25

> <canonical_smiles>
NC1=NC(N)=C([N+]([O-])=O)C(OCC2CCCCC2)=N1

> <standard_relation>
=

> <predicted_activity_value>
4.659238708237328

> <actual_activity_value>
5.080921907623926

> <Publication ID>
nan

> <standard_units>
nM

> hash
14640230452705308439

$$$$
28_
XXILIB    08252103453D 0   0.00000     0.00000

 19 20  0     1  0            999 V2000
    1.9485   -1.7404   -3.0308 O   0  0  0  0  0  2           0  0  0
    0.0000    0.0000    0.0000 O   0  0  0  0  0  2           0  0  0
    0.0639   -1.2034   -2.0163 O   0  5  0  0  0  1           0  0  0
    2.0532    0.5855    1.0142 N   0  0  0  0  0  3           0  0  0
    4.1068   -0.0038   -0.0555 N   0  0  0  0  0  3           0  0  0
    1.2972   -1.2263   -2.1128 N   0  3  0  0  0  4           0  0  0
    4.1114    1.1481    1.9950 N   0  0  0  0  0  3           0  0  0
    4.1609   -1.1985   -2.0866 N   0  0  0  0  0  3           0  0  0
    1.3821    0.0000    0.0000 C   0  0  0  0  0  4           0  0  0
    3.4040    0.5626    0.9573 C   0  0  0  0  0  4           0  0  0
    3.4305   -0.5757   -1.0802 C   0  0  0  0  0  4           0  0  0
    2.0434   -0.5960   -1.0593 C   0  0  0  0  0  4           0  0  0
   -0.5856    0.0000    1.3016 C   0  0  0  0  0  4           0  0  0
   -0.7973    1.4377    1.7721 C   0  0  2  0  0  4           0  0  0
   -1.4277    1.4838    3.1733 C   0  0  0  0  0  4           0  0  0
   -1.6547    2.2365    0.7773 C   0  0  0  0  0  4           0  0  0
   -1.6397    2.9206    3.6465 C   0  0  0  0  0  4           0  0  0
   -1.8669    3.6742    1.2479 C   0  0  0  0  0  4           0  0  0
   -2.4679    3.7248    2.6492 C   0  0  0  0  0  4           0  0  0
  1  6  2  0     0  0
  2  9  1  0     0  0
  2 13  1  0     0  0
  3  6  1  0     0  0
  4  9  2  0     0  0
  4 10  1  0     0  0
  5 10  2  0     0  0
  5 11  1  0     0  0
  6 12  1  0     0  0
  7 10  1  0     0  0
  8 11  1  0     0  0
  9 12  1  0     0  0
 11 12  2  0     0  0
 13 14  1  0     0  0
 14 15  1  0     0  0
 14 16  1  0     0  0
 15 17  1  0     0  0
 16 18  1  0     0  0
 17 19  1  0     0  0
 18 19  1  0     0  0
M  CHG  2   3  -1   6   1
M  END
> <Compound >
28

> <standard_type>
pIC50

> <# Confs.>
25

> <canonical_smiles>
NC1=NC(N)=C([N+]([O-])=O)C(OCC2CCCCC2)=N1

> <standard_relation>
=

> <predicted_activity_value>
4.659238708237328

> <actual_activity_value>
5.080921907623926

> <Publication ID>
nan

> <standard_units>
nM

> hash
14640230452705308439

$$$$
28_
XXILIB    08252103453D 0   0.00000     0.00000

 19 20  0     1  0            999 V2000
    1.9485    1.7545   -3.0226 O   0  0  0  0  0  2           0  0  0
    0.0000    0.0000    0.0000 O   0  0  0  0  0  2           0  0  0
    0.0639    1.1445   -2.0503 O   0  5  0  0  0  1           0  0  0
    2.0532   -0.5855    1.0142 N   0  0  0  0  0  3           0  0  0
    4.1068    0.0461   -0.0310 N   0  0  0  0  0  3           0  0  0
    1.2972    1.2166   -2.1184 N   0  3  0  0  0  4           0  0  0
    4.1114   -1.1537    1.9917 N   0  0  0  0  0  3           0  0  0
    4.1609    1.2078   -2.0812 N   0  0  0  0  0  3           0  0  0
    1.3821    0.0000    0.0000 C   0  0  0  0  0  4           0  0  0
    3.4040   -0.5478    0.9659 C   0  0  0  0  0  4           0  0  0
    3.4305    0.6476   -1.0387 C   0  0  0  0  0  4           0  0  0
    2.0434    0.6194   -1.0458 C   0  0  0  0  0  4           0  0  0
   -0.5856    0.0000    1.3016 C   0  0  0  0  0  4           0  0  0
   -1.9328   -0.7189    1.2612 C   0  0  2  0  0  4           0  0  0
   -2.9081   -0.0312    0.2923 C   0  0  0  0  0  4           0  0  0
   -2.5593   -0.8226    2.6610 C   0  0  0  0  0  4           0  0  0
   -4.2560   -0.7487    0.2494 C   0  0  0  0  0  4           0  0  0
   -3.9067   -1.5410    2.6207 C   0  0  0  0  0  4           0  0  0
   -4.8691   -0.8776    1.6403 C   0  0  0  0  0  4           0  0  0
  1  6  2  0     0  0
  2  9  1  0     0  0
  2 13  1  0     0  0
  3  6  1  0     0  0
  4  9  2  0     0  0
  4 10  1  0     0  0
  5 10  2  0     0  0
  5 11  1  0     0  0
  6 12  1  0     0  0
  7 10  1  0     0  0
  8 11  1  0     0  0
  9 12  1  0     0  0
 11 12  2  0     0  0
 13 14  1  0     0  0
 14 15  1  0     0  0
 14 16  1  0     0  0
 15 17  1  0     0  0
 16 18  1  0     0  0
 17 19  1  0     0  0
 18 19  1  0     0  0
M  CHG  2   3  -1   6   1
M  END
> <Compound >
28

> <standard_type>
pIC50

> <# Confs.>
25

> <canonical_smiles>
NC1=NC(N)=C([N+]([O-])=O)C(OCC2CCCCC2)=N1

> <standard_relation>
=

> <predicted_activity_value>
4.659238708237328

> <actual_activity_value>
5.080921907623926

> <Publication ID>
nan

> <standard_units>
nM

> hash
14640230452705308439

$$$$
28_
XXILIB    08252103453D 0   0.00000     0.00000

 19 20  0     1  0            999 V2000
    1.9485    1.7545   -3.0226 O   0  0  0  0  0  2           0  0  0
    0.0000    0.0000    0.0000 O   0  0  0  0  0  2           0  0  0
    0.0639    1.1445   -2.0503 O   0  5  0  0  0  1           0  0  0
    2.0532   -0.5855    1.0142 N   0  0  0  0  0  3           0  0  0
    4.1068    0.0461   -0.0310 N   0  0  0  0  0  3           0  0  0
    1.2972    1.2166   -2.1184 N   0  3  0  0  0  4           0  0  0
    4.1114   -1.1537    1.9917 N   0  0  0  0  0  3           0  0  0
    4.1609    1.2078   -2.0812 N   0  0  0  0  0  3           0  0  0
    1.3821    0.0000    0.0000 C   0  0  0  0  0  4           0  0  0
    3.4040   -0.5478    0.9659 C   0  0  0  0  0  4           0  0  0
    3.4305    0.6476   -1.0387 C   0  0  0  0  0  4           0  0  0
    2.0434    0.6194   -1.0458 C   0  0  0  0  0  4           0  0  0
   -0.5856    0.0000    1.3016 C   0  0  0  0  0  4           0  0  0
   -1.9328   -0.7189    1.2612 C   0  0  2  0  0  4           0  0  0
   -2.5996   -0.7419    2.6461 C   0  0  0  0  0  4           0  0  0
   -1.7931   -2.1489    0.7150 C   0  0  0  0  0  4           0  0  0
   -3.9474   -1.4596    2.6082 C   0  0  0  0  0  4           0  0  0
   -3.1402   -2.8681    0.6750 C   0  0  0  0  0  4           0  0  0
   -3.8179   -2.8701    2.0418 C   0  0  0  0  0  4           0  0  0
  1  6  2  0     0  0
  2  9  1  0     0  0
  2 13  1  0     0  0
  3  6  1  0     0  0
  4  9  2  0     0  0
  4 10  1  0     0  0
  5 10  2  0     0  0
  5 11  1  0     0  0
  6 12  1  0     0  0
  7 10  1  0     0  0
  8 11  1  0     0  0
  9 12  1  0     0  0
 11 12  2  0     0  0
 13 14  1  0     0  0
 14 15  1  0     0  0
 14 16  1  0     0  0
 15 17  1  0     0  0
 16 18  1  0     0  0
 17 19  1  0     0  0
 18 19  1  0     0  0
M  CHG  2   3  -1   6   1
M  END
> <Compound >
28

> <standard_type>
pIC50

> <# Confs.>
25

> <canonical_smiles>
NC1=NC(N)=C([N+]([O-])=O)C(OCC2CCCCC2)=N1

> <standard_relation>
=

> <predicted_activity_value>
4.659238708237328

> <actual_activity_value>
5.080921907623926

> <Publication ID>
nan

> <standard_units>
nM

> hash
14640230452705308439

$$$$
28_
XXILIB    08252103453D 0   0.00000     0.00000

 19 20  0     1  0            999 V2000
    1.9485   -1.7404   -3.0308 O   0  0  0  0  0  2           0  0  0
    0.0000    0.0000    0.0000 O   0  0  0  0  0  2           0  0  0
    0.0639   -1.2034   -2.0163 O   0  5  0  0  0  1           0  0  0
    2.0532    0.5855    1.0142 N   0  0  0  0  0  3           0  0  0
    4.1068   -0.0038   -0.0555 N   0  0  0  0  0  3           0  0  0
    1.2972   -1.2263   -2.1128 N   0  3  0  0  0  4           0  0  0
    4.1114    1.1481    1.9950 N   0  0  0  0  0  3           0  0  0
    4.1609   -1.1985   -2.0866 N   0  0  0  0  0  3           0  0  0
    1.3821    0.0000    0.0000 C   0  0  0  0  0  4           0  0  0
    3.4040    0.5626    0.9573 C   0  0  0  0  0  4           0  0  0
    3.4305   -0.5757   -1.0802 C   0  0  0  0  0  4           0  0  0
    2.0434   -0.5960   -1.0593 C   0  0  0  0  0  4           0  0  0
   -0.5856   -0.0000    1.3016 C   0  0  0  0  0  4           0  0  0
   -1.4528   -1.2451    1.4771 C   0  0  2  0  0  4           0  0  0
   -2.5845   -1.2931    0.4379 C   0  0  0  0  0  4           0  0  0
   -2.0324   -1.3334    2.8980 C   0  0  0  0  0  4           0  0  0
   -3.4529   -2.5378    0.6107 C   0  0  0  0  0  4           0  0  0
   -2.9001   -2.5783    3.0736 C   0  0  0  0  0  4           0  0  0
   -4.0086   -2.6437    2.0274 C   0  0  0  0  0  4           0  0  0
  1  6  2  0     0  0
  2  9  1  0     0  0
  2 13  1  0     0  0
  3  6  1  0     0  0
  4  9  2  0     0  0
  4 10  1  0     0  0
  5 10  2  0     0  0
  5 11  1  0     0  0
  6 12  1  0     0  0
  7 10  1  0     0  0
  8 11  1  0     0  0
  9 12  1  0     0  0
 11 12  2  0     0  0
 13 14  1  0     0  0
 14 15  1  0     0  0
 14 16  1  0     0  0
 15 17  1  0     0  0
 16 18  1  0     0  0
 17 19  1  0     0  0
 18 19  1  0     0  0
M  CHG  2   3  -1   6   1
M  END
> <Compound >
28

> <standard_type>
pIC50

> <# Confs.>
25

> <canonical_smiles>
NC1=NC(N)=C([N+]([O-])=O)C(OCC2CCCCC2)=N1

> <standard_relation>
=

> <predicted_activity_value>
4.659238708237328

> <actual_activity_value>
5.080921907623926

> <Publication ID>
nan

> <standard_units>
nM

> hash
14640230452705308439

$$$$
28_
XXILIB    08252103453D 0   0.00000     0.00000

 19 20  0     1  0            999 V2000
    1.9485   -3.0226   -1.7545 O   0  0  0  0  0  2           0  0  0
    0.0000    0.0000    0.0000 O   0  0  0  0  0  2           0  0  0
    0.0639   -2.0503   -1.1445 O   0  5  0  0  0  1           0  0  0
    2.0532    1.0142    0.5855 N   0  0  0  0  0  3           0  0  0
    4.1068   -0.0310   -0.0461 N   0  0  0  0  0  3           0  0  0
    1.2972   -2.1184   -1.2166 N   0  3  0  0  0  4           0  0  0
    4.1114    1.9917    1.1537 N   0  0  0  0  0  3           0  0  0
    4.1609   -2.0812   -1.2078 N   0  0  0  0  0  3           0  0  0
    1.3821    0.0000    0.0000 C   0  0  0  0  0  4           0  0  0
    3.4040    0.9659    0.5478 C   0  0  0  0  0  4           0  0  0
    3.4305   -1.0387   -0.6476 C   0  0  0  0  0  4           0  0  0
    2.0434   -1.0458   -0.6194 C   0  0  0  0  0  4           0  0  0
   -0.5856    0.0000    1.3016 C   0  0  0  0  0  4           0  0  0
   -1.9328   -0.7189    1.2612 C   0  0  2  0  0  4           0  0  0
   -2.9081   -0.0312    0.2923 C   0  0  0  0  0  4           0  0  0
   -2.5593   -0.8226    2.6610 C   0  0  0  0  0  4           0  0  0
   -4.2560   -0.7487    0.2494 C   0  0  0  0  0  4           0  0  0
   -3.9067   -1.5410    2.6207 C   0  0  0  0  0  4           0  0  0
   -4.8691   -0.8776    1.6403 C   0  0  0  0  0  4           0  0  0
  1  6  2  0     0  0
  2  9  1  0     0  0
  2 13  1  0     0  0
  3  6  1  0     0  0
  4  9  2  0     0  0
  4 10  1  0     0  0
  5 10  2  0     0  0
  5 11  1  0     0  0
  6 12  1  0     0  0
  7 10  1  0     0  0
  8 11  1  0     0  0
  9 12  1  0     0  0
 11 12  2  0     0  0
 13 14  1  0     0  0
 14 15  1  0     0  0
 14 16  1  0     0  0
 15 17  1  0     0  0
 16 18  1  0     0  0
 17 19  1  0     0  0
 18 19  1  0     0  0
M  CHG  2   3  -1   6   1
M  END
> <Compound >
28

> <standard_type>
pIC50

> <# Confs.>
25

> <canonical_smiles>
NC1=NC(N)=C([N+]([O-])=O)C(OCC2CCCCC2)=N1

> <standard_relation>
=

> <predicted_activity_value>
4.659238708237328

> <actual_activity_value>
5.080921907623926

> <Publication ID>
nan

> <standard_units>
nM

> hash
14640230452705308439

$$$$
28_
XXILIB    08252103453D 0   0.00000     0.00000

 19 20  0     1  0            999 V2000
    1.9485    0.0082   -3.4949 O   0  0  0  0  0  2           0  0  0
    0.0000    0.0000    0.0000 O   0  0  0  0  0  2           0  0  0
    0.0639   -0.0340   -2.3478 O   0  5  0  0  0  1           0  0  0
    2.0532   -0.0000    1.1711 N   0  0  0  0  0  3           0  0  0
    4.1068    0.0244   -0.0500 N   0  0  0  0  0  3           0  0  0
    1.2972   -0.0056   -2.4429 N   0  3  0  0  0  4           0  0  0
    4.1114   -0.0032    2.3017 N   0  0  0  0  0  3           0  0  0
    4.1609    0.0054   -2.4063 N   0  0  0  0  0  3           0  0  0
    1.3821    0.0000    0.0000 C   0  0  0  0  0  4           0  0  0
    3.4040    0.0086    1.1104 C   0  0  0  0  0  4           0  0  0
    3.4305    0.0415   -1.2233 C   0  0  0  0  0  4           0  0  0
    2.0434    0.0135   -1.2154 C   0  0  0  0  0  4           0  0  0
   -0.5856    0.0000    1.3016 C   0  0  0  0  0  4           0  0  0
   -0.7973   -1.4377    1.7721 C   0  0  2  0  0  4           0  0  0
   -1.7275   -2.2326    0.8379 C   0  0  0  0  0  4           0  0  0
   -1.3204   -1.4839    3.2154 C   0  0  0  0  0  4           0  0  0
   -3.1912   -1.8089    0.9531 C   0  0  0  0  0  4           0  0  0
   -2.7816   -1.0532    3.3310 C   0  0  0  0  0  4           0  0  0
   -3.6790   -1.8608    2.3979 C   0  0  0  0  0  4           0  0  0
  1  6  2  0     0  0
  2  9  1  0     0  0
  2 13  1  0     0  0
  3  6  1  0     0  0
  4  9  2  0     0  0
  4 10  1  0     0  0
  5 10  2  0     0  0
  5 11  1  0     0  0
  6 12  1  0     0  0
  7 10  1  0     0  0
  8 11  1  0     0  0
  9 12  1  0     0  0
 11 12  2  0     0  0
 13 14  1  0     0  0
 14 15  1  0     0  0
 14 16  1  0     0  0
 15 17  1  0     0  0
 16 18  1  0     0  0
 17 19  1  0     0  0
 18 19  1  0     0  0
M  CHG  2   3  -1   6   1
M  END
> <Compound >
28

> <standard_type>
pIC50

> <# Confs.>
25

> <canonical_smiles>
NC1=NC(N)=C([N+]([O-])=O)C(OCC2CCCCC2)=N1

> <standard_relation>
=

> <predicted_activity_value>
4.659238708237328

> <actual_activity_value>
5.080921907623926

> <Publication ID>
nan

> <standard_units>
nM

> hash
14640230452705308439

$$$$
28_
XXILIB    08252103453D 0   0.00000     0.00000

 19 20  0     1  0            999 V2000
    1.9485   -1.7404   -3.0308 O   0  0  0  0  0  2           0  0  0
    0.0000    0.0000    0.0000 O   0  0  0  0  0  2           0  0  0
    0.0639   -1.2034   -2.0163 O   0  5  0  0  0  1           0  0  0
    2.0532    0.5855    1.0142 N   0  0  0  0  0  3           0  0  0
    4.1068   -0.0038   -0.0555 N   0  0  0  0  0  3           0  0  0
    1.2972   -1.2263   -2.1128 N   0  3  0  0  0  4           0  0  0
    4.1114    1.1481    1.9950 N   0  0  0  0  0  3           0  0  0
    4.1609   -1.1985   -2.0866 N   0  0  0  0  0  3           0  0  0
    1.3821    0.0000    0.0000 C   0  0  0  0  0  4           0  0  0
    3.4040    0.5626    0.9573 C   0  0  0  0  0  4           0  0  0
    3.4305   -0.5757   -1.0802 C   0  0  0  0  0  4           0  0  0
    2.0434   -0.5960   -1.0593 C   0  0  0  0  0  4           0  0  0
   -0.5856   -0.0000    1.3016 C   0  0  0  0  0  4           0  0  0
   -1.4528   -1.2451    1.4771 C   0  0  2  0  0  4           0  0  0
   -0.6274   -2.5322    1.3184 C   0  0  0  0  0  4           0  0  0
   -2.6379   -1.2499    0.4982 C   0  0  0  0  0  4           0  0  0
   -1.4922   -3.7789    1.4942 C   0  0  0  0  0  4           0  0  0
   -3.5050   -2.4953    0.6732 C   0  0  0  0  0  4           0  0  0
   -2.6848   -3.7750    0.5429 C   0  0  0  0  0  4           0  0  0
  1  6  2  0     0  0
  2  9  1  0     0  0
  2 13  1  0     0  0
  3  6  1  0     0  0
  4  9  2  0     0  0
  4 10  1  0     0  0
  5 10  2  0     0  0
  5 11  1  0     0  0
  6 12  1  0     0  0
  7 10  1  0     0  0
  8 11  1  0     0  0
  9 12  1  0     0  0
 11 12  2  0     0  0
 13 14  1  0     0  0
 14 15  1  0     0  0
 14 16  1  0     0  0
 15 17  1  0     0  0
 16 18  1  0     0  0
 17 19  1  0     0  0
 18 19  1  0     0  0
M  CHG  2   3  -1   6   1
M  END
> <Compound >
28

> <standard_type>
pIC50

> <# Confs.>
25

> <canonical_smiles>
NC1=NC(N)=C([N+]([O-])=O)C(OCC2CCCCC2)=N1

> <standard_relation>
=

> <predicted_activity_value>
4.659238708237328

> <actual_activity_value>
5.080921907623926

> <Publication ID>
nan

> <standard_units>
nM

> hash
14640230452705308439

$$$$
28_
XXILIB    08252103453D 0   0.00000     0.00000

 19 20  0     1  0            999 V2000
    1.9485    1.7545   -3.0226 O   0  0  0  0  0  2           0  0  0
    0.0000    0.0000   -0.0000 O   0  0  0  0  0  2           0  0  0
    0.0639    1.1445   -2.0503 O   0  5  0  0  0  1           0  0  0
    2.0532   -0.5855    1.0142 N   0  0  0  0  0  3           0  0  0
    4.1068    0.0461   -0.0310 N   0  0  0  0  0  3           0  0  0
    1.2972    1.2166   -2.1184 N   0  3  0  0  0  4           0  0  0
    4.1114   -1.1537    1.9917 N   0  0  0  0  0  3           0  0  0
    4.1609    1.2078   -2.0812 N   0  0  0  0  0  3           0  0  0
    1.3821    0.0000    0.0000 C   0  0  0  0  0  4           0  0  0
    3.4040   -0.5478    0.9659 C   0  0  0  0  0  4           0  0  0
    3.4305    0.6476   -1.0387 C   0  0  0  0  0  4           0  0  0
    2.0434    0.6194   -1.0458 C   0  0  0  0  0  4           0  0  0
   -0.5856    0.0000    1.3016 C   0  0  0  0  0  4           0  0  0
   -1.4528    1.2451    1.4771 C   0  0  2  0  0  4           0  0  0
   -2.5845    1.2931    0.4379 C   0  0  0  0  0  4           0  0  0
   -0.6140    2.5313    1.4088 C   0  0  0  0  0  4           0  0  0
   -3.4538    2.5371    0.6117 C   0  0  0  0  0  4           0  0  0
   -1.4811    3.7766    1.5838 C   0  0  0  0  0  4           0  0  0
   -2.6217    3.8150    0.5713 C   0  0  0  0  0  4           0  0  0
  1  6  2  0     0  0
  2  9  1  0     0  0
  2 13  1  0     0  0
  3  6  1  0     0  0
  4  9  2  0     0  0
  4 10  1  0     0  0
  5 10  2  0     0  0
  5 11  1  0     0  0
  6 12  1  0     0  0
  7 10  1  0     0  0
  8 11  1  0     0  0
  9 12  1  0     0  0
 11 12  2  0     0  0
 13 14  1  0     0  0
 14 15  1  0     0  0
 14 16  1  0     0  0
 15 17  1  0     0  0
 16 18  1  0     0  0
 17 19  1  0     0  0
 18 19  1  0     0  0
M  CHG  2   3  -1   6   1
M  END
> <Compound >
28

> <standard_type>
pIC50

> <# Confs.>
25

> <canonical_smiles>
NC1=NC(N)=C([N+]([O-])=O)C(OCC2CCCCC2)=N1

> <standard_relation>
=

> <predicted_activity_value>
4.659238708237328

> <actual_activity_value>
5.080921907623926

> <Publication ID>
nan

> <standard_units>
nM

> hash
14640230452705308439

$$$$
28_
XXILIB    08252103453D 0   0.00000     0.00000

 19 20  0     1  0            999 V2000
    1.9485    1.7545   -3.0226 O   0  0  0  0  0  2           0  0  0
    0.0000    0.0000   -0.0000 O   0  0  0  0  0  2           0  0  0
    0.0639    1.1445   -2.0503 O   0  5  0  0  0  1           0  0  0
    2.0532   -0.5855    1.0142 N   0  0  0  0  0  3           0  0  0
    4.1068    0.0461   -0.0310 N   0  0  0  0  0  3           0  0  0
    1.2972    1.2166   -2.1184 N   0  3  0  0  0  4           0  0  0
    4.1114   -1.1537    1.9917 N   0  0  0  0  0  3           0  0  0
    4.1609    1.2078   -2.0812 N   0  0  0  0  0  3           0  0  0
    1.3821    0.0000    0.0000 C   0  0  0  0  0  4           0  0  0
    3.4040   -0.5478    0.9659 C   0  0  0  0  0  4           0  0  0
    3.4305    0.6476   -1.0387 C   0  0  0  0  0  4           0  0  0
    2.0434    0.6194   -1.0458 C   0  0  0  0  0  4           0  0  0
   -0.5856    0.0000    1.3016 C   0  0  0  0  0  4           0  0  0
   -1.4528    1.2451    1.4771 C   0  0  2  0  0  4           0  0  0
   -0.6274    2.5322    1.3184 C   0  0  0  0  0  4           0  0  0
   -2.1767    1.2421    2.8331 C   0  0  0  0  0  4           0  0  0
   -1.4925    3.7789    1.4927 C   0  0  0  0  0  4           0  0  0
   -3.0436    2.4875    3.0090 C   0  0  0  0  0  4           0  0  0
   -2.2338    3.7674    2.8259 C   0  0  0  0  0  4           0  0  0
  1  6  2  0     0  0
  2  9  1  0     0  0
  2 13  1  0     0  0
  3  6  1  0     0  0
  4  9  2  0     0  0
  4 10  1  0     0  0
  5 10  2  0     0  0
  5 11  1  0     0  0
  6 12  1  0     0  0
  7 10  1  0     0  0
  8 11  1  0     0  0
  9 12  1  0     0  0
 11 12  2  0     0  0
 13 14  1  0     0  0
 14 15  1  0     0  0
 14 16  1  0     0  0
 15 17  1  0     0  0
 16 18  1  0     0  0
 17 19  1  0     0  0
 18 19  1  0     0  0
M  CHG  2   3  -1   6   1
M  END
> <Compound >
28

> <standard_type>
pIC50

> <# Confs.>
25

> <canonical_smiles>
NC1=NC(N)=C([N+]([O-])=O)C(OCC2CCCCC2)=N1

> <standard_relation>
=

> <predicted_activity_value>
4.659238708237328

> <actual_activity_value>
5.080921907623926

> <Publication ID>
nan

> <standard_units>
nM

> hash
14640230452705308439

$$$$
28_
XXILIB    08252103453D 0   0.00000     0.00000

 19 20  0     1  0            999 V2000
    1.9485   -1.7404   -3.0308 O   0  0  0  0  0  2           0  0  0
    0.0000    0.0000   -0.0000 O   0  0  0  0  0  2           0  0  0
    0.0639   -1.2034   -2.0163 O   0  5  0  0  0  1           0  0  0
    2.0532    0.5855    1.0142 N   0  0  0  0  0  3           0  0  0
    4.1068   -0.0038   -0.0555 N   0  0  0  0  0  3           0  0  0
    1.2972   -1.2263   -2.1128 N   0  3  0  0  0  4           0  0  0
    4.1114    1.1481    1.9950 N   0  0  0  0  0  3           0  0  0
    4.1609   -1.1985   -2.0866 N   0  0  0  0  0  3           0  0  0
    1.3821    0.0000    0.0000 C   0  0  0  0  0  4           0  0  0
    3.4040    0.5626    0.9573 C   0  0  0  0  0  4           0  0  0
    3.4305   -0.5757   -1.0802 C   0  0  0  0  0  4           0  0  0
    2.0434   -0.5960   -1.0593 C   0  0  0  0  0  4           0  0  0
   -0.5856    0.0000    1.3016 C   0  0  0  0  0  4           0  0  0
   -1.9328    0.7189    1.2612 C   0  0  2  0  0  4           0  0  0
   -1.8060    2.1829    0.8026 C   0  0  0  0  0  4           0  0  0
   -2.6498    0.6422    2.6173 C   0  0  0  0  0  4           0  0  0
   -1.1738    3.0861    1.8607 C   0  0  0  0  0  4           0  0  0
   -2.0130    1.5398    3.6768 C   0  0  0  0  0  4           0  0  0
   -1.9050    2.9840    3.1961 C   0  0  0  0  0  4           0  0  0
  1  6  2  0     0  0
  2  9  1  0     0  0
  2 13  1  0     0  0
  3  6  1  0     0  0
  4  9  2  0     0  0
  4 10  1  0     0  0
  5 10  2  0     0  0
  5 11  1  0     0  0
  6 12  1  0     0  0
  7 10  1  0     0  0
  8 11  1  0     0  0
  9 12  1  0     0  0
 11 12  2  0     0  0
 13 14  1  0     0  0
 14 15  1  0     0  0
 14 16  1  0     0  0
 15 17  1  0     0  0
 16 18  1  0     0  0
 17 19  1  0     0  0
 18 19  1  0     0  0
M  CHG  2   3  -1   6   1
M  END
> <Compound >
28

> <standard_type>
pIC50

> <# Confs.>
25

> <canonical_smiles>
NC1=NC(N)=C([N+]([O-])=O)C(OCC2CCCCC2)=N1

> <standard_relation>
=

> <predicted_activity_value>
4.659238708237328

> <actual_activity_value>
5.080921907623926

> <Publication ID>
nan

> <standard_units>
nM

> hash
14640230452705308439

$$$$
28_
XXILIB    08252103453D 0   0.00000     0.00000

 19 20  0     1  0            999 V2000
    1.9485   -1.7404   -3.0308 O   0  0  0  0  0  2           0  0  0
    0.0000    0.0000    0.0000 O   0  0  0  0  0  2           0  0  0
    0.0639   -1.2034   -2.0163 O   0  5  0  0  0  1           0  0  0
    2.0532    0.5855    1.0142 N   0  0  0  0  0  3           0  0  0
    4.1068   -0.0038   -0.0555 N   0  0  0  0  0  3           0  0  0
    1.2972   -1.2263   -2.1128 N   0  3  0  0  0  4           0  0  0
    4.1114    1.1481    1.9950 N   0  0  0  0  0  3           0  0  0
    4.1609   -1.1985   -2.0866 N   0  0  0  0  0  3           0  0  0
    1.3821    0.0000    0.0000 C   0  0  0  0  0  4           0  0  0
    3.4040    0.5626    0.9573 C   0  0  0  0  0  4           0  0  0
    3.4305   -0.5757   -1.0802 C   0  0  0  0  0  4           0  0  0
    2.0434   -0.5960   -1.0593 C   0  0  0  0  0  4           0  0  0
   -0.5856   -0.0000    1.3016 C   0  0  0  0  0  4           0  0  0
   -1.4528   -1.2451    1.4771 C   0  0  2  0  0  4           0  0  0
   -2.1043   -1.2850    2.8689 C   0  0  0  0  0  4           0  0  0
   -0.6494   -2.5319    1.2296 C   0  0  0  0  0  4           0  0  0
   -2.9728   -2.5289    3.0467 C   0  0  0  0  0  4           0  0  0
   -1.5163   -3.7772    1.4056 C   0  0  0  0  0  4           0  0  0
   -2.1861   -3.8076    2.7759 C   0  0  0  0  0  4           0  0  0
  1  6  2  0     0  0
  2  9  1  0     0  0
  2 13  1  0     0  0
  3  6  1  0     0  0
  4  9  2  0     0  0
  4 10  1  0     0  0
  5 10  2  0     0  0
  5 11  1  0     0  0
  6 12  1  0     0  0
  7 10  1  0     0  0
  8 11  1  0     0  0
  9 12  1  0     0  0
 11 12  2  0     0  0
 13 14  1  0     0  0
 14 15  1  0     0  0
 14 16  1  0     0  0
 15 17  1  0     0  0
 16 18  1  0     0  0
 17 19  1  0     0  0
 18 19  1  0     0  0
M  CHG  2   3  -1   6   1
M  END
> <Compound >
28

> <standard_type>
pIC50

> <# Confs.>
25

> <canonical_smiles>
NC1=NC(N)=C([N+]([O-])=O)C(OCC2CCCCC2)=N1

> <standard_relation>
=

> <predicted_activity_value>
4.659238708237328

> <actual_activity_value>
5.080921907623926

> <Publication ID>
nan

> <standard_units>
nM

> hash
14640230452705308439

$$$$
28_
XXILIB    08252103453D 0   0.00000     0.00000

 19 20  0     1  0            999 V2000
    1.9485    0.0082   -3.4949 O   0  0  0  0  0  2           0  0  0
    0.0000    0.0000    0.0000 O   0  0  0  0  0  2           0  0  0
    0.0639   -0.0340   -2.3478 O   0  5  0  0  0  1           0  0  0
    2.0532   -0.0000    1.1711 N   0  0  0  0  0  3           0  0  0
    4.1068    0.0244   -0.0500 N   0  0  0  0  0  3           0  0  0
    1.2972   -0.0056   -2.4429 N   0  3  0  0  0  4           0  0  0
    4.1114   -0.0032    2.3017 N   0  0  0  0  0  3           0  0  0
    4.1609    0.0054   -2.4063 N   0  0  0  0  0  3           0  0  0
    1.3821    0.0000    0.0000 C   0  0  0  0  0  4           0  0  0
    3.4040    0.0086    1.1104 C   0  0  0  0  0  4           0  0  0
    3.4305    0.0415   -1.2233 C   0  0  0  0  0  4           0  0  0
    2.0434    0.0135   -1.2154 C   0  0  0  0  0  4           0  0  0
   -0.5856    0.0000    1.3016 C   0  0  0  0  0  4           0  0  0
   -0.7973    1.4377    1.7721 C   0  0  2  0  0  4           0  0  0
   -1.4282    1.5122    3.1743 C   0  0  0  0  0  4           0  0  0
   -1.6345    2.2396    0.7645 C   0  0  0  0  0  4           0  0  0
   -2.9053    1.1209    3.1846 C   0  0  0  0  0  4           0  0  0
   -3.1097    1.8429    0.7700 C   0  0  0  0  0  4           0  0  0
   -3.7081    1.9308    2.1709 C   0  0  0  0  0  4           0  0  0
  1  6  2  0     0  0
  2  9  1  0     0  0
  2 13  1  0     0  0
  3  6  1  0     0  0
  4  9  2  0     0  0
  4 10  1  0     0  0
  5 10  2  0     0  0
  5 11  1  0     0  0
  6 12  1  0     0  0
  7 10  1  0     0  0
  8 11  1  0     0  0
  9 12  1  0     0  0
 11 12  2  0     0  0
 13 14  1  0     0  0
 14 15  1  0     0  0
 14 16  1  0     0  0
 15 17  1  0     0  0
 16 18  1  0     0  0
 17 19  1  0     0  0
 18 19  1  0     0  0
M  CHG  2   3  -1   6   1
M  END
> <Compound >
28

> <standard_type>
pIC50

> <# Confs.>
25

> <canonical_smiles>
NC1=NC(N)=C([N+]([O-])=O)C(OCC2CCCCC2)=N1

> <standard_relation>
=

> <predicted_activity_value>
4.659238708237328

> <actual_activity_value>
5.080921907623926

> <Publication ID>
nan

> <standard_units>
nM

> hash
14640230452705308439

$$$$
28_
XXILIB    08252103453D 0   0.00000     0.00000

 19 20  0     1  0            999 V2000
    1.9485    1.7545   -3.0226 O   0  0  0  0  0  2           0  0  0
    0.0000    0.0000    0.0000 O   0  0  0  0  0  2           0  0  0
    0.0639    1.1445   -2.0503 O   0  5  0  0  0  1           0  0  0
    2.0532   -0.5855    1.0142 N   0  0  0  0  0  3           0  0  0
    4.1068    0.0461   -0.0310 N   0  0  0  0  0  3           0  0  0
    1.2972    1.2166   -2.1184 N   0  3  0  0  0  4           0  0  0
    4.1114   -1.1537    1.9917 N   0  0  0  0  0  3           0  0  0
    4.1609    1.2078   -2.0812 N   0  0  0  0  0  3           0  0  0
    1.3821    0.0000    0.0000 C   0  0  0  0  0  4           0  0  0
    3.4040   -0.5478    0.9659 C   0  0  0  0  0  4           0  0  0
    3.4305    0.6476   -1.0387 C   0  0  0  0  0  4           0  0  0
    2.0434    0.6194   -1.0458 C   0  0  0  0  0  4           0  0  0
   -0.5856    0.0000    1.3016 C   0  0  0  0  0  4           0  0  0
   -0.7973    1.4377    1.7721 C   0  0  2  0  0  4           0  0  0
   -1.4277    1.4838    3.1733 C   0  0  0  0  0  4           0  0  0
   -1.6547    2.2365    0.7773 C   0  0  0  0  0  4           0  0  0
   -1.6397    2.9206    3.6465 C   0  0  0  0  0  4           0  0  0
   -1.8669    3.6742    1.2479 C   0  0  0  0  0  4           0  0  0
   -2.4679    3.7248    2.6492 C   0  0  0  0  0  4           0  0  0
  1  6  2  0     0  0
  2  9  1  0     0  0
  2 13  1  0     0  0
  3  6  1  0     0  0
  4  9  2  0     0  0
  4 10  1  0     0  0
  5 10  2  0     0  0
  5 11  1  0     0  0
  6 12  1  0     0  0
  7 10  1  0     0  0
  8 11  1  0     0  0
  9 12  1  0     0  0
 11 12  2  0     0  0
 13 14  1  0     0  0
 14 15  1  0     0  0
 14 16  1  0     0  0
 15 17  1  0     0  0
 16 18  1  0     0  0
 17 19  1  0     0  0
 18 19  1  0     0  0
M  CHG  2   3  -1   6   1
M  END
> <Compound >
28

> <standard_type>
pIC50

> <# Confs.>
25

> <canonical_smiles>
NC1=NC(N)=C([N+]([O-])=O)C(OCC2CCCCC2)=N1

> <standard_relation>
=

> <predicted_activity_value>
4.659238708237328

> <actual_activity_value>
5.080921907623926

> <Publication ID>
nan

> <standard_units>
nM

> hash
14640230452705308439

$$$$
22_
XXILIB    08252103453D 0   0.00000     0.00000

 23 24  0     1  0            999 V2000
    4.9139    0.0723    4.8197 S   0  0  1  0  0  6           0  0  0
    4.0553   -0.0794    5.9781 O   0  0  0  0  0  2           0  0  0
    5.7972    1.2149    4.6917 O   0  0  0  0  0  2           0  0  0
   -2.7356    0.0266    2.3103 O   0  0  0  0  0  2           0  0  0
   -4.7925   -0.5089   -1.0390 O   0  0  0  0  0  2           0  0  0
   -0.6718    0.0000    1.1711 N   0  0  0  0  0  3           0  0  0
   -0.6199   -0.0022   -1.2018 N   0  0  0  0  0  3           0  0  0
    5.8105   -1.3597    4.5911 N   0  0  0  0  0  3           0  0  0
    1.3981    0.0000    0.0000 N   0  0  0  0  0  3           0  0  0
   -2.5687   -0.0141   -2.5058 N   0  0  0  0  0  3           0  0  0
    3.8847    0.0332    3.3876 C   0  0  0  0  0  4           0  0  0
   -2.0234    0.0014    1.1203 C   0  0  0  0  0  4           0  0  0
    0.0000    0.0000    0.0000 C   0  0  0  0  0  4           0  0  0
   -1.9759   -0.0240   -1.2458 C   0  0  0  0  0  4           0  0  0
    2.2033    0.0000    1.1410 C   0  0  0  0  0  4           0  0  0
   -2.7316   -0.0037   -0.0754 C   0  0  0  0  0  4           0  0  0
    4.3068    0.6354    2.2062 C   0  0  0  0  0  4           0  0  0
    2.6339   -0.5741    3.4705 C   0  0  0  0  0  4           0  0  0
    3.4668    0.6130    1.0900 C   0  0  0  0  0  4           0  0  0
    1.8001   -0.5900    2.3494 C   0  0  0  0  0  4           0  0  0
   -4.1890    0.0216   -0.1164 C   0  0  0  0  0  4           0  0  0
   -1.9196    0.0486    3.4814 C   0  0  0  0  0  4           0  0  0
   -2.8323    0.0745    4.6939 C   0  0  0  0  0  4           0  0  0
  1  2  2  0     0  0
  1  3  2  0     0  0
  1  8  1  0     0  0
  1 11  1  0     0  0
  4 12  1  0     0  0
  4 22  1  0     0  0
  5 21  2  0     0  0
  6 12  2  0     0  0
  6 13  1  0     0  0
  7 13  2  0     0  0
  7 14  1  0     0  0
  9 13  1  0     0  0
  9 15  1  0     0  0
 10 14  1  0     0  0
 11 17  2  0     0  0
 11 18  1  0     0  0
 12 16  1  0     0  0
 14 16  2  0     0  0
 15 19  2  0     0  0
 15 20  1  0     0  0
 16 21  1  0     0  0
 17 19  1  0     0  0
 18 20  2  0     0  0
 22 23  1  0     0  0
M  END
> <Compound >
22

> <standard_type>
pIC50

> <# Confs.>
25

> <canonical_smiles>
CCOC1=NC(NC2=CC=C(S(=O)(N)=O)C=C2)=NC(N)=C1C([H])=O

> <standard_relation>
=

> <predicted_activity_value>
7.247951552180561

> <actual_activity_value>
7.309803919971486

> <Publication ID>
nan

> <standard_units>
nM

> hash
6964019981972515013

$$$$
22_
XXILIB    08252103453D 0   0.00000     0.00000

 23 24  0     1  0            999 V2000
    4.9139    0.0723    4.8197 S   0  0  1  0  0  6           0  0  0
    6.2814    0.2433    4.3695 O   0  0  0  0  0  2           0  0  0
    4.5402   -1.0510    5.6568 O   0  0  0  0  0  2           0  0  0
   -2.7356    0.0266    2.3103 O   0  0  0  0  0  2           0  0  0
   -4.7925   -0.5089   -1.0390 O   0  0  0  0  0  2           0  0  0
   -0.6718    0.0000    1.1711 N   0  0  0  0  0  3           0  0  0
   -0.6199   -0.0022   -1.2018 N   0  0  0  0  0  3           0  0  0
    4.3742    1.5179    5.5448 N   0  0  0  0  0  3           0  0  0
    1.3981    0.0000    0.0000 N   0  0  0  0  0  3           0  0  0
   -2.5687   -0.0141   -2.5058 N   0  0  0  0  0  3           0  0  0
    3.8847    0.0332    3.3876 C   0  0  0  0  0  4           0  0  0
   -2.0234    0.0014    1.1203 C   0  0  0  0  0  4           0  0  0
    0.0000    0.0000    0.0000 C   0  0  0  0  0  4           0  0  0
   -1.9759   -0.0240   -1.2458 C   0  0  0  0  0  4           0  0  0
    2.2033    0.0000    1.1410 C   0  0  0  0  0  4           0  0  0
   -2.7316   -0.0037   -0.0754 C   0  0  0  0  0  4           0  0  0
    4.3068    0.6354    2.2062 C   0  0  0  0  0  4           0  0  0
    2.6339   -0.5741    3.4705 C   0  0  0  0  0  4           0  0  0
    3.4668    0.6130    1.0900 C   0  0  0  0  0  4           0  0  0
    1.8001   -0.5900    2.3494 C   0  0  0  0  0  4           0  0  0
   -4.1890    0.0216   -0.1164 C   0  0  0  0  0  4           0  0  0
   -1.9196    0.0486    3.4814 C   0  0  0  0  0  4           0  0  0
   -2.8323    0.0745    4.6939 C   0  0  0  0  0  4           0  0  0
  1  2  2  0     0  0
  1  3  2  0     0  0
  1  8  1  0     0  0
  1 11  1  0     0  0
  4 12  1  0     0  0
  4 22  1  0     0  0
  5 21  2  0     0  0
  6 12  2  0     0  0
  6 13  1  0     0  0
  7 13  2  0     0  0
  7 14  1  0     0  0
  9 13  1  0     0  0
  9 15  1  0     0  0
 10 14  1  0     0  0
 11 17  2  0     0  0
 11 18  1  0     0  0
 12 16  1  0     0  0
 14 16  2  0     0  0
 15 19  2  0     0  0
 15 20  1  0     0  0
 16 21  1  0     0  0
 17 19  1  0     0  0
 18 20  2  0     0  0
 22 23  1  0     0  0
M  END
> <Compound >
22

> <standard_type>
pIC50

> <# Confs.>
25

> <canonical_smiles>
CCOC1=NC(NC2=CC=C(S(=O)(N)=O)C=C2)=NC(N)=C1C([H])=O

> <standard_relation>
=

> <predicted_activity_value>
7.247951552180561

> <actual_activity_value>
7.309803919971486

> <Publication ID>
nan

> <standard_units>
nM

> hash
6964019981972515013

$$$$
22_
XXILIB    08252103453D 0   0.00000     0.00000

 23 24  0     1  0            999 V2000
    4.9267   -0.0450    4.8106 S   0  0  1  0  0  6           0  0  0
    4.5202    1.0650    5.6500 O   0  0  0  0  0  2           0  0  0
    6.2936   -0.1626    4.3415 O   0  0  0  0  0  2           0  0  0
   -2.7356    0.0266    2.3103 O   0  0  0  0  0  2           0  0  0
   -4.7925   -0.5089   -1.0390 O   0  0  0  0  0  2           0  0  0
   -0.6718    0.0000    1.1711 N   0  0  0  0  0  3           0  0  0
   -0.6199   -0.0022   -1.2018 N   0  0  0  0  0  3           0  0  0
    4.4569   -1.5096    5.5463 N   0  0  0  0  0  3           0  0  0
    1.3981    0.0000   -0.0000 N   0  0  0  0  0  3           0  0  0
   -2.5687   -0.0141   -2.5058 N   0  0  0  0  0  3           0  0  0
    3.8762   -0.0514    3.3936 C   0  0  0  0  0  4           0  0  0
   -2.0234    0.0014    1.1203 C   0  0  0  0  0  4           0  0  0
    0.0000    0.0000    0.0000 C   0  0  0  0  0  4           0  0  0
   -1.9759   -0.0240   -1.2458 C   0  0  0  0  0  4           0  0  0
    2.2033    0.0000    1.1410 C   0  0  0  0  0  4           0  0  0
   -2.7316   -0.0037   -0.0754 C   0  0  0  0  0  4           0  0  0
    4.3052   -0.6388    2.2073 C   0  0  0  0  0  4           0  0  0
    2.6326    0.5714    3.4714 C   0  0  0  0  0  4           0  0  0
    3.4668   -0.6130    1.0900 C   0  0  0  0  0  4           0  0  0
    1.8018    0.5936    2.3482 C   0  0  0  0  0  4           0  0  0
   -4.1890    0.0216   -0.1164 C   0  0  0  0  0  4           0  0  0
   -1.9196    0.0486    3.4814 C   0  0  0  0  0  4           0  0  0
   -2.8323    0.0745    4.6939 C   0  0  0  0  0  4           0  0  0
  1  2  2  0     0  0
  1  3  2  0     0  0
  1  8  1  0     0  0
  1 11  1  0     0  0
  4 12  1  0     0  0
  4 22  1  0     0  0
  5 21  2  0     0  0
  6 12  2  0     0  0
  6 13  1  0     0  0
  7 13  2  0     0  0
  7 14  1  0     0  0
  9 13  1  0     0  0
  9 15  1  0     0  0
 10 14  1  0     0  0
 11 17  2  0     0  0
 11 18  1  0     0  0
 12 16  1  0     0  0
 14 16  2  0     0  0
 15 19  2  0     0  0
 15 20  1  0     0  0
 16 21  1  0     0  0
 17 19  1  0     0  0
 18 20  2  0     0  0
 22 23  1  0     0  0
M  END
> <Compound >
22

> <standard_type>
pIC50

> <# Confs.>
25

> <canonical_smiles>
CCOC1=NC(NC2=CC=C(S(=O)(N)=O)C=C2)=NC(N)=C1C([H])=O

> <standard_relation>
=

> <predicted_activity_value>
7.247951552180561

> <actual_activity_value>
7.309803919971486

> <Publication ID>
nan

> <standard_units>
nM

> hash
6964019981972515013

$$$$
22_
XXILIB    08252103453D 0   0.00000     0.00000

 23 24  0     1  0            999 V2000
    4.9267   -0.0450    4.8106 S   0  0  1  0  0  6           0  0  0
    5.8528   -1.1519    4.6720 O   0  0  0  0  0  2           0  0  0
    4.0802    0.0758    5.9815 O   0  0  0  0  0  2           0  0  0
   -2.7356    0.0266    2.3103 O   0  0  0  0  0  2           0  0  0
   -4.7925   -0.5089   -1.0390 O   0  0  0  0  0  2           0  0  0
   -0.6718    0.0000    1.1711 N   0  0  0  0  0  3           0  0  0
   -0.6199   -0.0022   -1.2018 N   0  0  0  0  0  3           0  0  0
    5.7609    1.4218    4.5663 N   0  0  0  0  0  3           0  0  0
    1.3981    0.0000   -0.0000 N   0  0  0  0  0  3           0  0  0
   -2.5687   -0.0141   -2.5058 N   0  0  0  0  0  3           0  0  0
    3.8762   -0.0514    3.3936 C   0  0  0  0  0  4           0  0  0
   -2.0234    0.0014    1.1203 C   0  0  0  0  0  4           0  0  0
    0.0000    0.0000    0.0000 C   0  0  0  0  0  4           0  0  0
   -1.9759   -0.0240   -1.2458 C   0  0  0  0  0  4           0  0  0
    2.2033    0.0000    1.1410 C   0  0  0  0  0  4           0  0  0
   -2.7316   -0.0037   -0.0754 C   0  0  0  0  0  4           0  0  0
    4.3052   -0.6388    2.2073 C   0  0  0  0  0  4           0  0  0
    2.6326    0.5714    3.4714 C   0  0  0  0  0  4           0  0  0
    3.4668   -0.6130    1.0900 C   0  0  0  0  0  4           0  0  0
    1.8018    0.5936    2.3482 C   0  0  0  0  0  4           0  0  0
   -4.1890    0.0216   -0.1164 C   0  0  0  0  0  4           0  0  0
   -1.9196    0.0486    3.4814 C   0  0  0  0  0  4           0  0  0
   -2.8323    0.0745    4.6939 C   0  0  0  0  0  4           0  0  0
  1  2  2  0     0  0
  1  3  2  0     0  0
  1  8  1  0     0  0
  1 11  1  0     0  0
  4 12  1  0     0  0
  4 22  1  0     0  0
  5 21  2  0     0  0
  6 12  2  0     0  0
  6 13  1  0     0  0
  7 13  2  0     0  0
  7 14  1  0     0  0
  9 13  1  0     0  0
  9 15  1  0     0  0
 10 14  1  0     0  0
 11 17  2  0     0  0
 11 18  1  0     0  0
 12 16  1  0     0  0
 14 16  2  0     0  0
 15 19  2  0     0  0
 15 20  1  0     0  0
 16 21  1  0     0  0
 17 19  1  0     0  0
 18 20  2  0     0  0
 22 23  1  0     0  0
M  END
> <Compound >
22

> <standard_type>
pIC50

> <# Confs.>
25

> <canonical_smiles>
CCOC1=NC(NC2=CC=C(S(=O)(N)=O)C=C2)=NC(N)=C1C([H])=O

> <standard_relation>
=

> <predicted_activity_value>
7.247951552180561

> <actual_activity_value>
7.309803919971486

> <Publication ID>
nan

> <standard_units>
nM

> hash
6964019981972515013

$$$$
22_
XXILIB    08252103453D 0   0.00000     0.00000

 23 24  0     1  0            999 V2000
    4.9267    2.3663    4.1886 S   0  0  1  0  0  6           0  0  0
    5.8528    1.3384    4.6220 O   0  0  0  0  0  2           0  0  0
    4.0802    3.0563    5.1422 O   0  0  0  0  0  2           0  0  0
   -2.7356    0.0266    2.3103 O   0  0  0  0  0  2           0  0  0
   -4.7792    0.0162   -1.1881 O   0  0  0  0  0  2           0  0  0
   -0.6718    0.0000    1.1711 N   0  0  0  0  0  3           0  0  0
   -0.6199   -0.0022   -1.2018 N   0  0  0  0  0  3           0  0  0
    5.7609    3.5144    3.2437 N   0  0  0  0  0  3           0  0  0
    1.3981   -0.0000   -0.0000 N   0  0  0  0  0  3           0  0  0
   -2.5687   -0.0141   -2.5058 N   0  0  0  0  0  3           0  0  0
    3.8762    1.6523    2.9647 C   0  0  0  0  0  4           0  0  0
   -2.0234    0.0014    1.1203 C   0  0  0  0  0  4           0  0  0
    0.0000    0.0000    0.0000 C   0  0  0  0  0  4           0  0  0
   -1.9759   -0.0240   -1.2458 C   0  0  0  0  0  4           0  0  0
    2.2033    0.5705    0.9882 C   0  0  0  0  0  4           0  0  0
   -2.7316   -0.0037   -0.0754 C   0  0  0  0  0  4           0  0  0
    4.3052    0.5504    2.2310 C   0  0  0  0  0  4           0  0  0
    2.6326    2.2306    2.7206 C   0  0  0  0  0  4           0  0  0
    3.4668    0.0141    1.2505 C   0  0  0  0  0  4           0  0  0
    1.8018    1.6882    1.7368 C   0  0  0  0  0  4           0  0  0
   -4.1890    0.0216   -0.1164 C   0  0  0  0  0  4           0  0  0
   -1.9196    0.0486    3.4814 C   0  0  0  0  0  4           0  0  0
   -2.8323    0.0745    4.6939 C   0  0  0  0  0  4           0  0  0
  1  2  2  0     0  0
  1  3  2  0     0  0
  1  8  1  0     0  0
  1 11  1  0     0  0
  4 12  1  0     0  0
  4 22  1  0     0  0
  5 21  2  0     0  0
  6 12  2  0     0  0
  6 13  1  0     0  0
  7 13  2  0     0  0
  7 14  1  0     0  0
  9 13  1  0     0  0
  9 15  1  0     0  0
 10 14  1  0     0  0
 11 17  2  0     0  0
 11 18  1  0     0  0
 12 16  1  0     0  0
 14 16  2  0     0  0
 15 19  2  0     0  0
 15 20  1  0     0  0
 16 21  1  0     0  0
 17 19  1  0     0  0
 18 20  2  0     0  0
 22 23  1  0     0  0
M  END
> <Compound >
22

> <standard_type>
pIC50

> <# Confs.>
25

> <canonical_smiles>
CCOC1=NC(NC2=CC=C(S(=O)(N)=O)C=C2)=NC(N)=C1C([H])=O

> <standard_relation>
=

> <predicted_activity_value>
7.247951552180561

> <actual_activity_value>
7.309803919971486

> <Publication ID>
nan

> <standard_units>
nM

> hash
6964019981972515013

$$$$
22_
XXILIB    08252103453D 0   0.00000     0.00000

 23 24  0     1  0            999 V2000
    4.9267    2.3663    4.1886 S   0  0  1  0  0  6           0  0  0
    4.5202    3.7473    4.3605 O   0  0  0  0  0  2           0  0  0
    6.2936    2.0299    3.8411 O   0  0  0  0  0  2           0  0  0
   -2.7356    0.0266    2.3103 O   0  0  0  0  0  2           0  0  0
   -4.7792    0.0162   -1.1881 O   0  0  0  0  0  2           0  0  0
   -0.6718    0.0000    1.1711 N   0  0  0  0  0  3           0  0  0
   -0.6199   -0.0022   -1.2018 N   0  0  0  0  0  3           0  0  0
    4.4569    1.4658    5.5580 N   0  0  0  0  0  3           0  0  0
    1.3981   -0.0000   -0.0000 N   0  0  0  0  0  3           0  0  0
   -2.5687   -0.0141   -2.5058 N   0  0  0  0  0  3           0  0  0
    3.8762    1.6523    2.9647 C   0  0  0  0  0  4           0  0  0
   -2.0234    0.0014    1.1203 C   0  0  0  0  0  4           0  0  0
    0.0000    0.0000    0.0000 C   0  0  0  0  0  4           0  0  0
   -1.9759   -0.0240   -1.2458 C   0  0  0  0  0  4           0  0  0
    2.2033    0.5705    0.9882 C   0  0  0  0  0  4           0  0  0
   -2.7316   -0.0037   -0.0754 C   0  0  0  0  0  4           0  0  0
    4.3052    0.5504    2.2310 C   0  0  0  0  0  4           0  0  0
    2.6326    2.2306    2.7206 C   0  0  0  0  0  4           0  0  0
    3.4668    0.0141    1.2505 C   0  0  0  0  0  4           0  0  0
    1.8018    1.6882    1.7368 C   0  0  0  0  0  4           0  0  0
   -4.1890    0.0216   -0.1164 C   0  0  0  0  0  4           0  0  0
   -1.9196    0.0486    3.4814 C   0  0  0  0  0  4           0  0  0
   -2.8323    0.0745    4.6939 C   0  0  0  0  0  4           0  0  0
  1  2  2  0     0  0
  1  3  2  0     0  0
  1  8  1  0     0  0
  1 11  1  0     0  0
  4 12  1  0     0  0
  4 22  1  0     0  0
  5 21  2  0     0  0
  6 12  2  0     0  0
  6 13  1  0     0  0
  7 13  2  0     0  0
  7 14  1  0     0  0
  9 13  1  0     0  0
  9 15  1  0     0  0
 10 14  1  0     0  0
 11 17  2  0     0  0
 11 18  1  0     0  0
 12 16  1  0     0  0
 14 16  2  0     0  0
 15 19  2  0     0  0
 15 20  1  0     0  0
 16 21  1  0     0  0
 17 19  1  0     0  0
 18 20  2  0     0  0
 22 23  1  0     0  0
M  END
> <Compound >
22

> <standard_type>
pIC50

> <# Confs.>
25

> <canonical_smiles>
CCOC1=NC(NC2=CC=C(S(=O)(N)=O)C=C2)=NC(N)=C1C([H])=O

> <standard_relation>
=

> <predicted_activity_value>
7.247951552180561

> <actual_activity_value>
7.309803919971486

> <Publication ID>
nan

> <standard_units>
nM

> hash
6964019981972515013

$$$$
22_
XXILIB    08252103453D 0   0.00000     0.00000

 23 24  0     1  0            999 V2000
    4.9139   -0.0723   -4.8197 S   0  0  1  0  0  6           0  0  0
    6.2814   -0.2433   -4.3695 O   0  0  0  0  0  2           0  0  0
    4.5402    1.0510   -5.6568 O   0  0  0  0  0  2           0  0  0
   -2.7356    0.0266    2.3103 O   0  0  0  0  0  2           0  0  0
   -4.7925   -0.5089   -1.0390 O   0  0  0  0  0  2           0  0  0
   -0.6718    0.0000    1.1711 N   0  0  0  0  0  3           0  0  0
   -0.6199   -0.0022   -1.2018 N   0  0  0  0  0  3           0  0  0
    4.3742   -1.5179   -5.5448 N   0  0  0  0  0  3           0  0  0
    1.3981   -0.0000   -0.0000 N   0  0  0  0  0  3           0  0  0
   -2.5687   -0.0141   -2.5058 N   0  0  0  0  0  3           0  0  0
    3.8847   -0.0332   -3.3876 C   0  0  0  0  0  4           0  0  0
   -2.0234    0.0014    1.1203 C   0  0  0  0  0  4           0  0  0
    0.0000    0.0000    0.0000 C   0  0  0  0  0  4           0  0  0
   -1.9759   -0.0240   -1.2458 C   0  0  0  0  0  4           0  0  0
    2.2033    0.0000   -1.1410 C   0  0  0  0  0  4           0  0  0
   -2.7316   -0.0037   -0.0754 C   0  0  0  0  0  4           0  0  0
    4.3068   -0.6354   -2.2062 C   0  0  0  0  0  4           0  0  0
    2.6339    0.5741   -3.4705 C   0  0  0  0  0  4           0  0  0
    3.4668   -0.6130   -1.0900 C   0  0  0  0  0  4           0  0  0
    1.8001    0.5900   -2.3494 C   0  0  0  0  0  4           0  0  0
   -4.1890    0.0216   -0.1164 C   0  0  0  0  0  4           0  0  0
   -1.9196    0.0486    3.4814 C   0  0  0  0  0  4           0  0  0
   -2.8323    0.0745    4.6939 C   0  0  0  0  0  4           0  0  0
  1  2  2  0     0  0
  1  3  2  0     0  0
  1  8  1  0     0  0
  1 11  1  0     0  0
  4 12  1  0     0  0
  4 22  1  0     0  0
  5 21  2  0     0  0
  6 12  2  0     0  0
  6 13  1  0     0  0
  7 13  2  0     0  0
  7 14  1  0     0  0
  9 13  1  0     0  0
  9 15  1  0     0  0
 10 14  1  0     0  0
 11 17  2  0     0  0
 11 18  1  0     0  0
 12 16  1  0     0  0
 14 16  2  0     0  0
 15 19  2  0     0  0
 15 20  1  0     0  0
 16 21  1  0     0  0
 17 19  1  0     0  0
 18 20  2  0     0  0
 22 23  1  0     0  0
M  END
> <Compound >
22

> <standard_type>
pIC50

> <# Confs.>
25

> <canonical_smiles>
CCOC1=NC(NC2=CC=C(S(=O)(N)=O)C=C2)=NC(N)=C1C([H])=O

> <standard_relation>
=

> <predicted_activity_value>
7.247951552180561

> <actual_activity_value>
7.309803919971486

> <Publication ID>
nan

> <standard_units>
nM

> hash
6964019981972515013

$$$$
22_
XXILIB    08252103453D 0   0.00000     0.00000

 23 24  0     1  0            999 V2000
    4.9267    0.0450   -4.8106 S   0  0  1  0  0  6           0  0  0
    4.5202   -1.0650   -5.6500 O   0  0  0  0  0  2           0  0  0
    6.2936    0.1626   -4.3415 O   0  0  0  0  0  2           0  0  0
   -2.7356    0.0266    2.3103 O   0  0  0  0  0  2           0  0  0
   -4.7925   -0.5089   -1.0390 O   0  0  0  0  0  2           0  0  0
   -0.6718    0.0000    1.1711 N   0  0  0  0  0  3           0  0  0
   -0.6199   -0.0022   -1.2018 N   0  0  0  0  0  3           0  0  0
    4.4569    1.5096   -5.5463 N   0  0  0  0  0  3           0  0  0
    1.3981   -0.0000    0.0000 N   0  0  0  0  0  3           0  0  0
   -2.5687   -0.0141   -2.5058 N   0  0  0  0  0  3           0  0  0
    3.8762    0.0514   -3.3936 C   0  0  0  0  0  4           0  0  0
   -2.0234    0.0014    1.1203 C   0  0  0  0  0  4           0  0  0
    0.0000    0.0000    0.0000 C   0  0  0  0  0  4           0  0  0
   -1.9759   -0.0240   -1.2458 C   0  0  0  0  0  4           0  0  0
    2.2033    0.0000   -1.1410 C   0  0  0  0  0  4           0  0  0
   -2.7316   -0.0037   -0.0754 C   0  0  0  0  0  4           0  0  0
    4.3052    0.6388   -2.2073 C   0  0  0  0  0  4           0  0  0
    2.6326   -0.5714   -3.4714 C   0  0  0  0  0  4           0  0  0
    3.4668    0.6130   -1.0900 C   0  0  0  0  0  4           0  0  0
    1.8018   -0.5936   -2.3482 C   0  0  0  0  0  4           0  0  0
   -4.1890    0.0216   -0.1164 C   0  0  0  0  0  4           0  0  0
   -1.9196    0.0486    3.4814 C   0  0  0  0  0  4           0  0  0
   -2.8323    0.0745    4.6939 C   0  0  0  0  0  4           0  0  0
  1  2  2  0     0  0
  1  3  2  0     0  0
  1  8  1  0     0  0
  1 11  1  0     0  0
  4 12  1  0     0  0
  4 22  1  0     0  0
  5 21  2  0     0  0
  6 12  2  0     0  0
  6 13  1  0     0  0
  7 13  2  0     0  0
  7 14  1  0     0  0
  9 13  1  0     0  0
  9 15  1  0     0  0
 10 14  1  0     0  0
 11 17  2  0     0  0
 11 18  1  0     0  0
 12 16  1  0     0  0
 14 16  2  0     0  0
 15 19  2  0     0  0
 15 20  1  0     0  0
 16 21  1  0     0  0
 17 19  1  0     0  0
 18 20  2  0     0  0
 22 23  1  0     0  0
M  END
> <Compound >
22

> <standard_type>
pIC50

> <# Confs.>
25

> <canonical_smiles>
CCOC1=NC(NC2=CC=C(S(=O)(N)=O)C=C2)=NC(N)=C1C([H])=O

> <standard_relation>
=

> <predicted_activity_value>
7.247951552180561

> <actual_activity_value>
7.309803919971486

> <Publication ID>
nan

> <standard_units>
nM

> hash
6964019981972515013

$$$$
22_
XXILIB    08252103453D 0   0.00000     0.00000

 23 24  0     1  0            999 V2000
    4.9139   -0.0723   -4.8197 S   0  0  1  0  0  6           0  0  0
    4.0553    0.0794   -5.9781 O   0  0  0  0  0  2           0  0  0
    5.7972   -1.2149   -4.6917 O   0  0  0  0  0  2           0  0  0
   -2.7356    0.0266    2.3103 O   0  0  0  0  0  2           0  0  0
   -4.7925   -0.5089   -1.0390 O   0  0  0  0  0  2           0  0  0
   -0.6718    0.0000    1.1711 N   0  0  0  0  0  3           0  0  0
   -0.6199   -0.0022   -1.2018 N   0  0  0  0  0  3           0  0  0
    5.8105    1.3597   -4.5911 N   0  0  0  0  0  3           0  0  0
    1.3981   -0.0000   -0.0000 N   0  0  0  0  0  3           0  0  0
   -2.5687   -0.0141   -2.5058 N   0  0  0  0  0  3           0  0  0
    3.8847   -0.0332   -3.3876 C   0  0  0  0  0  4           0  0  0
   -2.0234    0.0014    1.1203 C   0  0  0  0  0  4           0  0  0
    0.0000    0.0000    0.0000 C   0  0  0  0  0  4           0  0  0
   -1.9759   -0.0240   -1.2458 C   0  0  0  0  0  4           0  0  0
    2.2033    0.0000   -1.1410 C   0  0  0  0  0  4           0  0  0
   -2.7316   -0.0037   -0.0754 C   0  0  0  0  0  4           0  0  0
    4.3068   -0.6354   -2.2062 C   0  0  0  0  0  4           0  0  0
    2.6339    0.5741   -3.4705 C   0  0  0  0  0  4           0  0  0
    3.4668   -0.6130   -1.0900 C   0  0  0  0  0  4           0  0  0
    1.8001    0.5900   -2.3494 C   0  0  0  0  0  4           0  0  0
   -4.1890    0.0216   -0.1164 C   0  0  0  0  0  4           0  0  0
   -1.9196    0.0486    3.4814 C   0  0  0  0  0  4           0  0  0
   -2.8323    0.0745    4.6939 C   0  0  0  0  0  4           0  0  0
  1  2  2  0     0  0
  1  3  2  0     0  0
  1  8  1  0     0  0
  1 11  1  0     0  0
  4 12  1  0     0  0
  4 22  1  0     0  0
  5 21  2  0     0  0
  6 12  2  0     0  0
  6 13  1  0     0  0
  7 13  2  0     0  0
  7 14  1  0     0  0
  9 13  1  0     0  0
  9 15  1  0     0  0
 10 14  1  0     0  0
 11 17  2  0     0  0
 11 18  1  0     0  0
 12 16  1  0     0  0
 14 16  2  0     0  0
 15 19  2  0     0  0
 15 20  1  0     0  0
 16 21  1  0     0  0
 17 19  1  0     0  0
 18 20  2  0     0  0
 22 23  1  0     0  0
M  END
> <Compound >
22

> <standard_type>
pIC50

> <# Confs.>
25

> <canonical_smiles>
CCOC1=NC(NC2=CC=C(S(=O)(N)=O)C=C2)=NC(N)=C1C([H])=O

> <standard_relation>
=

> <predicted_activity_value>
7.247951552180561

> <actual_activity_value>
7.309803919971486

> <Publication ID>
nan

> <standard_units>
nM

> hash
6964019981972515013

$$$$
22_
XXILIB    08252103453D 0   0.00000     0.00000

 23 24  0     1  0            999 V2000
    4.9267    0.0450   -4.8106 S   0  0  1  0  0  6           0  0  0
    5.8528    1.1519   -4.6720 O   0  0  0  0  0  2           0  0  0
    4.0802   -0.0758   -5.9815 O   0  0  0  0  0  2           0  0  0
   -2.7356    0.0266    2.3103 O   0  0  0  0  0  2           0  0  0
   -4.7925   -0.5089   -1.0390 O   0  0  0  0  0  2           0  0  0
   -0.6718    0.0000    1.1711 N   0  0  0  0  0  3           0  0  0
   -0.6199   -0.0022   -1.2018 N   0  0  0  0  0  3           0  0  0
    5.7609   -1.4218   -4.5663 N   0  0  0  0  0  3           0  0  0
    1.3981   -0.0000    0.0000 N   0  0  0  0  0  3           0  0  0
   -2.5687   -0.0141   -2.5058 N   0  0  0  0  0  3           0  0  0
    3.8762    0.0514   -3.3936 C   0  0  0  0  0  4           0  0  0
   -2.0234    0.0014    1.1203 C   0  0  0  0  0  4           0  0  0
    0.0000    0.0000    0.0000 C   0  0  0  0  0  4           0  0  0
   -1.9759   -0.0240   -1.2458 C   0  0  0  0  0  4           0  0  0
    2.2033    0.0000   -1.1410 C   0  0  0  0  0  4           0  0  0
   -2.7316   -0.0037   -0.0754 C   0  0  0  0  0  4           0  0  0
    4.3052    0.6388   -2.2073 C   0  0  0  0  0  4           0  0  0
    2.6326   -0.5714   -3.4714 C   0  0  0  0  0  4           0  0  0
    3.4668    0.6130   -1.0900 C   0  0  0  0  0  4           0  0  0
    1.8018   -0.5936   -2.3482 C   0  0  0  0  0  4           0  0  0
   -4.1890    0.0216   -0.1164 C   0  0  0  0  0  4           0  0  0
   -1.9196    0.0486    3.4814 C   0  0  0  0  0  4           0  0  0
   -2.8323    0.0745    4.6939 C   0  0  0  0  0  4           0  0  0
  1  2  2  0     0  0
  1  3  2  0     0  0
  1  8  1  0     0  0
  1 11  1  0     0  0
  4 12  1  0     0  0
  4 22  1  0     0  0
  5 21  2  0     0  0
  6 12  2  0     0  0
  6 13  1  0     0  0
  7 13  2  0     0  0
  7 14  1  0     0  0
  9 13  1  0     0  0
  9 15  1  0     0  0
 10 14  1  0     0  0
 11 17  2  0     0  0
 11 18  1  0     0  0
 12 16  1  0     0  0
 14 16  2  0     0  0
 15 19  2  0     0  0
 15 20  1  0     0  0
 16 21  1  0     0  0
 17 19  1  0     0  0
 18 20  2  0     0  0
 22 23  1  0     0  0
M  END
> <Compound >
22

> <standard_type>
pIC50

> <# Confs.>
25

> <canonical_smiles>
CCOC1=NC(NC2=CC=C(S(=O)(N)=O)C=C2)=NC(N)=C1C([H])=O

> <standard_relation>
=

> <predicted_activity_value>
7.247951552180561

> <actual_activity_value>
7.309803919971486

> <Publication ID>
nan

> <standard_units>
nM

> hash
6964019981972515013

$$$$
22_
XXILIB    08252103453D 0   0.00000     0.00000

 23 24  0     1  0            999 V2000
    4.9139   -2.3472    4.2101 S   0  0  1  0  0  6           0  0  0
    4.0553   -3.0578    5.1374 O   0  0  0  0  0  2           0  0  0
    5.7972   -1.2937    4.6706 O   0  0  0  0  0  2           0  0  0
   -2.7356    0.0266    2.3103 O   0  0  0  0  0  2           0  0  0
   -4.7925   -0.5089   -1.0390 O   0  0  0  0  0  2           0  0  0
   -0.6718    0.0000    1.1711 N   0  0  0  0  0  3           0  0  0
   -0.6199   -0.0022   -1.2018 N   0  0  0  0  0  3           0  0  0
    5.8105   -3.4731    3.2962 N   0  0  0  0  0  3           0  0  0
    1.3981    0.0000    0.0000 N   0  0  0  0  0  3           0  0  0
   -2.5687   -0.0141   -2.5058 N   0  0  0  0  0  3           0  0  0
    3.8847   -1.6650    2.9504 C   0  0  0  0  0  4           0  0  0
   -2.0234    0.0014    1.1203 C   0  0  0  0  0  4           0  0  0
    0.0000    0.0000    0.0000 C   0  0  0  0  0  4           0  0  0
   -1.9759   -0.0240   -1.2458 C   0  0  0  0  0  4           0  0  0
    2.2033   -0.5705    0.9882 C   0  0  0  0  0  4           0  0  0
   -2.7316   -0.0037   -0.0754 C   0  0  0  0  0  4           0  0  0
    4.3068   -0.5528    2.2283 C   0  0  0  0  0  4           0  0  0
    2.6339   -2.2325    2.7185 C   0  0  0  0  0  4           0  0  0
    3.4668   -0.0141    1.2505 C   0  0  0  0  0  4           0  0  0
    1.8001   -1.6856    1.7396 C   0  0  0  0  0  4           0  0  0
   -4.1890    0.0216   -0.1164 C   0  0  0  0  0  4           0  0  0
   -2.0681    0.6977    3.3789 C   0  0  0  0  0  4           0  0  0
   -2.9625    0.6436    4.6040 C   0  0  0  0  0  4           0  0  0
  1  2  2  0     0  0
  1  3  2  0     0  0
  1  8  1  0     0  0
  1 11  1  0     0  0
  4 12  1  0     0  0
  4 22  1  0     0  0
  5 21  2  0     0  0
  6 12  2  0     0  0
  6 13  1  0     0  0
  7 13  2  0     0  0
  7 14  1  0     0  0
  9 13  1  0     0  0
  9 15  1  0     0  0
 10 14  1  0     0  0
 11 17  2  0     0  0
 11 18  1  0     0  0
 12 16  1  0     0  0
 14 16  2  0     0  0
 15 19  2  0     0  0
 15 20  1  0     0  0
 16 21  1  0     0  0
 17 19  1  0     0  0
 18 20  2  0     0  0
 22 23  1  0     0  0
M  END
> <Compound >
22

> <standard_type>
pIC50

> <# Confs.>
25

> <canonical_smiles>
CCOC1=NC(NC2=CC=C(S(=O)(N)=O)C=C2)=NC(N)=C1C([H])=O

> <standard_relation>
=

> <predicted_activity_value>
7.247951552180561

> <actual_activity_value>
7.309803919971486

> <Publication ID>
nan

> <standard_units>
nM

> hash
6964019981972515013

$$$$
22_
XXILIB    08252103453D 0   0.00000     0.00000

 23 24  0     1  0            999 V2000
    4.9139   -2.3472    4.2101 S   0  0  1  0  0  6           0  0  0
    6.2814   -1.9740    3.9058 O   0  0  0  0  0  2           0  0  0
    4.5402   -3.7386    4.3735 O   0  0  0  0  0  2           0  0  0
   -2.7356    0.0266    2.3103 O   0  0  0  0  0  2           0  0  0
   -4.7925   -0.5089   -1.0390 O   0  0  0  0  0  2           0  0  0
   -0.6718    0.0000    1.1711 N   0  0  0  0  0  3           0  0  0
   -0.6199   -0.0022   -1.2018 N   0  0  0  0  0  3           0  0  0
    4.3742   -1.4579    5.5609 N   0  0  0  0  0  3           0  0  0
    1.3981    0.0000    0.0000 N   0  0  0  0  0  3           0  0  0
   -2.5687   -0.0141   -2.5058 N   0  0  0  0  0  3           0  0  0
    3.8847   -1.6650    2.9504 C   0  0  0  0  0  4           0  0  0
   -2.0234    0.0014    1.1203 C   0  0  0  0  0  4           0  0  0
    0.0000    0.0000    0.0000 C   0  0  0  0  0  4           0  0  0
   -1.9759   -0.0240   -1.2458 C   0  0  0  0  0  4           0  0  0
    2.2033   -0.5705    0.9882 C   0  0  0  0  0  4           0  0  0
   -2.7316   -0.0037   -0.0754 C   0  0  0  0  0  4           0  0  0
    4.3068   -0.5528    2.2283 C   0  0  0  0  0  4           0  0  0
    2.6339   -2.2325    2.7185 C   0  0  0  0  0  4           0  0  0
    3.4668   -0.0141    1.2505 C   0  0  0  0  0  4           0  0  0
    1.8001   -1.6856    1.7396 C   0  0  0  0  0  4           0  0  0
   -4.1890    0.0216   -0.1164 C   0  0  0  0  0  4           0  0  0
   -2.0681    0.6977    3.3789 C   0  0  0  0  0  4           0  0  0
   -2.9625    0.6436    4.6040 C   0  0  0  0  0  4           0  0  0
  1  2  2  0     0  0
  1  3  2  0     0  0
  1  8  1  0     0  0
  1 11  1  0     0  0
  4 12  1  0     0  0
  4 22  1  0     0  0
  5 21  2  0     0  0
  6 12  2  0     0  0
  6 13  1  0     0  0
  7 13  2  0     0  0
  7 14  1  0     0  0
  9 13  1  0     0  0
  9 15  1  0     0  0
 10 14  1  0     0  0
 11 17  2  0     0  0
 11 18  1  0     0  0
 12 16  1  0     0  0
 14 16  2  0     0  0
 15 19  2  0     0  0
 15 20  1  0     0  0
 16 21  1  0     0  0
 17 19  1  0     0  0
 18 20  2  0     0  0
 22 23  1  0     0  0
M  END
> <Compound >
22

> <standard_type>
pIC50

> <# Confs.>
25

> <canonical_smiles>
CCOC1=NC(NC2=CC=C(S(=O)(N)=O)C=C2)=NC(N)=C1C([H])=O

> <standard_relation>
=

> <predicted_activity_value>
7.247951552180561

> <actual_activity_value>
7.309803919971486

> <Publication ID>
nan

> <standard_units>
nM

> hash
6964019981972515013

$$$$
22_
XXILIB    08252103453D 0   0.00000     0.00000

 23 24  0     1  0            999 V2000
    4.9267   -2.3663   -4.1886 S   0  0  1  0  0  6           0  0  0
    4.5202   -3.7473   -4.3605 O   0  0  0  0  0  2           0  0  0
    6.2936   -2.0299   -3.8411 O   0  0  0  0  0  2           0  0  0
   -2.7356    0.0266    2.3103 O   0  0  0  0  0  2           0  0  0
   -4.7925   -0.5089   -1.0390 O   0  0  0  0  0  2           0  0  0
   -0.6718    0.0000    1.1711 N   0  0  0  0  0  3           0  0  0
   -0.6199   -0.0022   -1.2018 N   0  0  0  0  0  3           0  0  0
    4.4569   -1.4658   -5.5580 N   0  0  0  0  0  3           0  0  0
    1.3981    0.0000    0.0000 N   0  0  0  0  0  3           0  0  0
   -2.5687   -0.0141   -2.5058 N   0  0  0  0  0  3           0  0  0
    3.8762   -1.6523   -2.9647 C   0  0  0  0  0  4           0  0  0
   -2.0234    0.0014    1.1203 C   0  0  0  0  0  4           0  0  0
    0.0000    0.0000    0.0000 C   0  0  0  0  0  4           0  0  0
   -1.9759   -0.0240   -1.2458 C   0  0  0  0  0  4           0  0  0
    2.2033   -0.5705   -0.9882 C   0  0  0  0  0  4           0  0  0
   -2.7316   -0.0037   -0.0754 C   0  0  0  0  0  4           0  0  0
    4.3052   -0.5504   -2.2310 C   0  0  0  0  0  4           0  0  0
    2.6326   -2.2306   -2.7206 C   0  0  0  0  0  4           0  0  0
    3.4668   -0.0141   -1.2505 C   0  0  0  0  0  4           0  0  0
    1.8018   -1.6882   -1.7368 C   0  0  0  0  0  4           0  0  0
   -4.1890    0.0216   -0.1164 C   0  0  0  0  0  4           0  0  0
   -2.0705   -0.6036    3.4050 C   0  0  0  0  0  4           0  0  0
   -2.9645   -0.4972    4.6269 C   0  0  0  0  0  4           0  0  0
  1  2  2  0     0  0
  1  3  2  0     0  0
  1  8  1  0     0  0
  1 11  1  0     0  0
  4 12  1  0     0  0
  4 22  1  0     0  0
  5 21  2  0     0  0
  6 12  2  0     0  0
  6 13  1  0     0  0
  7 13  2  0     0  0
  7 14  1  0     0  0
  9 13  1  0     0  0
  9 15  1  0     0  0
 10 14  1  0     0  0
 11 17  2  0     0  0
 11 18  1  0     0  0
 12 16  1  0     0  0
 14 16  2  0     0  0
 15 19  2  0     0  0
 15 20  1  0     0  0
 16 21  1  0     0  0
 17 19  1  0     0  0
 18 20  2  0     0  0
 22 23  1  0     0  0
M  END
> <Compound >
22

> <standard_type>
pIC50

> <# Confs.>
25

> <canonical_smiles>
CCOC1=NC(NC2=CC=C(S(=O)(N)=O)C=C2)=NC(N)=C1C([H])=O

> <standard_relation>
=

> <predicted_activity_value>
7.247951552180561

> <actual_activity_value>
7.309803919971486

> <Publication ID>
nan

> <standard_units>
nM

> hash
6964019981972515013

$$$$
22_
XXILIB    08252103453D 0   0.00000     0.00000

 23 24  0     1  0            999 V2000
    4.9267   -2.3663   -4.1886 S   0  0  1  0  0  6           0  0  0
    5.8528   -1.3384   -4.6220 O   0  0  0  0  0  2           0  0  0
    4.0802   -3.0563   -5.1422 O   0  0  0  0  0  2           0  0  0
   -2.7356    0.0266    2.3103 O   0  0  0  0  0  2           0  0  0
   -4.7925   -0.5089   -1.0390 O   0  0  0  0  0  2           0  0  0
   -0.6718    0.0000    1.1711 N   0  0  0  0  0  3           0  0  0
   -0.6199   -0.0022   -1.2018 N   0  0  0  0  0  3           0  0  0
    5.7609   -3.5144   -3.2437 N   0  0  0  0  0  3           0  0  0
    1.3981    0.0000    0.0000 N   0  0  0  0  0  3           0  0  0
   -2.5687   -0.0141   -2.5058 N   0  0  0  0  0  3           0  0  0
    3.8762   -1.6523   -2.9647 C   0  0  0  0  0  4           0  0  0
   -2.0234    0.0014    1.1203 C   0  0  0  0  0  4           0  0  0
    0.0000    0.0000    0.0000 C   0  0  0  0  0  4           0  0  0
   -1.9759   -0.0240   -1.2458 C   0  0  0  0  0  4           0  0  0
    2.2033   -0.5705   -0.9882 C   0  0  0  0  0  4           0  0  0
   -2.7316   -0.0037   -0.0754 C   0  0  0  0  0  4           0  0  0
    4.3052   -0.5504   -2.2310 C   0  0  0  0  0  4           0  0  0
    2.6326   -2.2306   -2.7206 C   0  0  0  0  0  4           0  0  0
    3.4668   -0.0141   -1.2505 C   0  0  0  0  0  4           0  0  0
    1.8018   -1.6882   -1.7368 C   0  0  0  0  0  4           0  0  0
   -4.1890    0.0216   -0.1164 C   0  0  0  0  0  4           0  0  0
   -2.0705   -0.6036    3.4050 C   0  0  0  0  0  4           0  0  0
   -2.9645   -0.4972    4.6269 C   0  0  0  0  0  4           0  0  0
  1  2  2  0     0  0
  1  3  2  0     0  0
  1  8  1  0     0  0
  1 11  1  0     0  0
  4 12  1  0     0  0
  4 22  1  0     0  0
  5 21  2  0     0  0
  6 12  2  0     0  0
  6 13  1  0     0  0
  7 13  2  0     0  0
  7 14  1  0     0  0
  9 13  1  0     0  0
  9 15  1  0     0  0
 10 14  1  0     0  0
 11 17  2  0     0  0
 11 18  1  0     0  0
 12 16  1  0     0  0
 14 16  2  0     0  0
 15 19  2  0     0  0
 15 20  1  0     0  0
 16 21  1  0     0  0
 17 19  1  0     0  0
 18 20  2  0     0  0
 22 23  1  0     0  0
M  END
> <Compound >
22

> <standard_type>
pIC50

> <# Confs.>
25

> <canonical_smiles>
CCOC1=NC(NC2=CC=C(S(=O)(N)=O)C=C2)=NC(N)=C1C([H])=O

> <standard_relation>
=

> <predicted_activity_value>
7.247951552180561

> <actual_activity_value>
7.309803919971486

> <Publication ID>
nan

> <standard_units>
nM

> hash
6964019981972515013

$$$$
22_
XXILIB    08252103453D 0   0.00000     0.00000

 23 24  0     1  0            999 V2000
    4.9139    2.3472   -4.2101 S   0  0  1  0  0  6           0  0  0
    6.2814    1.9740   -3.9058 O   0  0  0  0  0  2           0  0  0
    4.5402    3.7386   -4.3735 O   0  0  0  0  0  2           0  0  0
   -2.7356    0.0266    2.3103 O   0  0  0  0  0  2           0  0  0
   -4.7925   -0.5089   -1.0390 O   0  0  0  0  0  2           0  0  0
   -0.6718    0.0000    1.1711 N   0  0  0  0  0  3           0  0  0
   -0.6199   -0.0022   -1.2018 N   0  0  0  0  0  3           0  0  0
    4.3742    1.4579   -5.5609 N   0  0  0  0  0  3           0  0  0
    1.3981   -0.0000   -0.0000 N   0  0  0  0  0  3           0  0  0
   -2.5687   -0.0141   -2.5058 N   0  0  0  0  0  3           0  0  0
    3.8847    1.6650   -2.9504 C   0  0  0  0  0  4           0  0  0
   -2.0234    0.0014    1.1203 C   0  0  0  0  0  4           0  0  0
    0.0000    0.0000    0.0000 C   0  0  0  0  0  4           0  0  0
   -1.9759   -0.0240   -1.2458 C   0  0  0  0  0  4           0  0  0
    2.2033    0.5705   -0.9882 C   0  0  0  0  0  4           0  0  0
   -2.7316   -0.0037   -0.0754 C   0  0  0  0  0  4           0  0  0
    4.3068    0.5528   -2.2283 C   0  0  0  0  0  4           0  0  0
    2.6339    2.2325   -2.7185 C   0  0  0  0  0  4           0  0  0
    3.4668    0.0141   -1.2505 C   0  0  0  0  0  4           0  0  0
    1.8001    1.6856   -1.7396 C   0  0  0  0  0  4           0  0  0
   -4.1890    0.0216   -0.1164 C   0  0  0  0  0  4           0  0  0
   -2.0681    0.6977    3.3789 C   0  0  0  0  0  4           0  0  0
   -2.9625    0.6436    4.6040 C   0  0  0  0  0  4           0  0  0
  1  2  2  0     0  0
  1  3  2  0     0  0
  1  8  1  0     0  0
  1 11  1  0     0  0
  4 12  1  0     0  0
  4 22  1  0     0  0
  5 21  2  0     0  0
  6 12  2  0     0  0
  6 13  1  0     0  0
  7 13  2  0     0  0
  7 14  1  0     0  0
  9 13  1  0     0  0
  9 15  1  0     0  0
 10 14  1  0     0  0
 11 17  2  0     0  0
 11 18  1  0     0  0
 12 16  1  0     0  0
 14 16  2  0     0  0
 15 19  2  0     0  0
 15 20  1  0     0  0
 16 21  1  0     0  0
 17 19  1  0     0  0
 18 20  2  0     0  0
 22 23  1  0     0  0
M  END
> <Compound >
22

> <standard_type>
pIC50

> <# Confs.>
25

> <canonical_smiles>
CCOC1=NC(NC2=CC=C(S(=O)(N)=O)C=C2)=NC(N)=C1C([H])=O

> <standard_relation>
=

> <predicted_activity_value>
7.247951552180561

> <actual_activity_value>
7.309803919971486

> <Publication ID>
nan

> <standard_units>
nM

> hash
6964019981972515013

$$$$
22_
XXILIB    08252103453D 0   0.00000     0.00000

 23 24  0     1  0            999 V2000
    4.9139    2.3472   -4.2101 S   0  0  1  0  0  6           0  0  0
    4.0553    3.0578   -5.1374 O   0  0  0  0  0  2           0  0  0
    5.7972    1.2937   -4.6706 O   0  0  0  0  0  2           0  0  0
   -2.7356    0.0266    2.3103 O   0  0  0  0  0  2           0  0  0
   -4.7925   -0.5089   -1.0390 O   0  0  0  0  0  2           0  0  0
   -0.6718    0.0000    1.1711 N   0  0  0  0  0  3           0  0  0
   -0.6199   -0.0022   -1.2018 N   0  0  0  0  0  3           0  0  0
    5.8105    3.4731   -3.2962 N   0  0  0  0  0  3           0  0  0
    1.3981   -0.0000   -0.0000 N   0  0  0  0  0  3           0  0  0
   -2.5687   -0.0141   -2.5058 N   0  0  0  0  0  3           0  0  0
    3.8847    1.6650   -2.9504 C   0  0  0  0  0  4           0  0  0
   -2.0234    0.0014    1.1203 C   0  0  0  0  0  4           0  0  0
    0.0000    0.0000    0.0000 C   0  0  0  0  0  4           0  0  0
   -1.9759   -0.0240   -1.2458 C   0  0  0  0  0  4           0  0  0
    2.2033    0.5705   -0.9882 C   0  0  0  0  0  4           0  0  0
   -2.7316   -0.0037   -0.0754 C   0  0  0  0  0  4           0  0  0
    4.3068    0.5528   -2.2283 C   0  0  0  0  0  4           0  0  0
    2.6339    2.2325   -2.7185 C   0  0  0  0  0  4           0  0  0
    3.4668    0.0141   -1.2505 C   0  0  0  0  0  4           0  0  0
    1.8001    1.6856   -1.7396 C   0  0  0  0  0  4           0  0  0
   -4.1890    0.0216   -0.1164 C   0  0  0  0  0  4           0  0  0
   -2.0681    0.6977    3.3789 C   0  0  0  0  0  4           0  0  0
   -2.9625    0.6436    4.6040 C   0  0  0  0  0  4           0  0  0
  1  2  2  0     0  0
  1  3  2  0     0  0
  1  8  1  0     0  0
  1 11  1  0     0  0
  4 12  1  0     0  0
  4 22  1  0     0  0
  5 21  2  0     0  0
  6 12  2  0     0  0
  6 13  1  0     0  0
  7 13  2  0     0  0
  7 14  1  0     0  0
  9 13  1  0     0  0
  9 15  1  0     0  0
 10 14  1  0     0  0
 11 17  2  0     0  0
 11 18  1  0     0  0
 12 16  1  0     0  0
 14 16  2  0     0  0
 15 19  2  0     0  0
 15 20  1  0     0  0
 16 21  1  0     0  0
 17 19  1  0     0  0
 18 20  2  0     0  0
 22 23  1  0     0  0
M  END
> <Compound >
22

> <standard_type>
pIC50

> <# Confs.>
25

> <canonical_smiles>
CCOC1=NC(NC2=CC=C(S(=O)(N)=O)C=C2)=NC(N)=C1C([H])=O

> <standard_relation>
=

> <predicted_activity_value>
7.247951552180561

> <actual_activity_value>
7.309803919971486

> <Publication ID>
nan

> <standard_units>
nM

> hash
6964019981972515013

$$$$
22_
XXILIB    08252103453D 0   0.00000     0.00000

 23 24  0     1  0            999 V2000
    4.9139    2.4724    4.1378 S   0  0  1  0  0  6           0  0  0
    6.2814    2.3955    3.6624 O   0  0  0  0  0  2           0  0  0
    4.5402    1.9183    5.4244 O   0  0  0  0  0  2           0  0  0
   -2.7356    0.0266    2.3103 O   0  0  0  0  0  2           0  0  0
   -4.7792    0.0162   -1.1881 O   0  0  0  0  0  2           0  0  0
   -0.6718    0.0000    1.1711 N   0  0  0  0  0  3           0  0  0
   -0.6199   -0.0022   -1.2018 N   0  0  0  0  0  3           0  0  0
    4.3742    4.0869    4.0430 N   0  0  0  0  0  3           0  0  0
    1.3981    0.0000    0.0000 N   0  0  0  0  0  3           0  0  0
   -2.5687   -0.0141   -2.5058 N   0  0  0  0  0  3           0  0  0
    3.8847    1.7226    2.9171 C   0  0  0  0  0  4           0  0  0
   -2.0234    0.0014    1.1203 C   0  0  0  0  0  4           0  0  0
    0.0000    0.0000    0.0000 C   0  0  0  0  0  4           0  0  0
   -1.9759   -0.0240   -1.2458 C   0  0  0  0  0  4           0  0  0
    2.2033    0.5705    0.9882 C   0  0  0  0  0  4           0  0  0
   -2.7316   -0.0037   -0.0754 C   0  0  0  0  0  4           0  0  0
    4.3068    1.6534    1.5929 C   0  0  0  0  0  4           0  0  0
    2.6339    1.2381    3.2926 C   0  0  0  0  0  4           0  0  0
    3.4668    1.0759    0.6375 C   0  0  0  0  0  4           0  0  0
    1.8001    0.6637    2.3296 C   0  0  0  0  0  4           0  0  0
   -4.1890    0.0216   -0.1164 C   0  0  0  0  0  4           0  0  0
   -1.9196    0.0486    3.4814 C   0  0  0  0  0  4           0  0  0
   -2.8323    0.0745    4.6939 C   0  0  0  0  0  4           0  0  0
  1  2  2  0     0  0
  1  3  2  0     0  0
  1  8  1  0     0  0
  1 11  1  0     0  0
  4 12  1  0     0  0
  4 22  1  0     0  0
  5 21  2  0     0  0
  6 12  2  0     0  0
  6 13  1  0     0  0
  7 13  2  0     0  0
  7 14  1  0     0  0
  9 13  1  0     0  0
  9 15  1  0     0  0
 10 14  1  0     0  0
 11 17  2  0     0  0
 11 18  1  0     0  0
 12 16  1  0     0  0
 14 16  2  0     0  0
 15 19  2  0     0  0
 15 20  1  0     0  0
 16 21  1  0     0  0
 17 19  1  0     0  0
 18 20  2  0     0  0
 22 23  1  0     0  0
M  END
> <Compound >
22

> <standard_type>
pIC50

> <# Confs.>
25

> <canonical_smiles>
CCOC1=NC(NC2=CC=C(S(=O)(N)=O)C=C2)=NC(N)=C1C([H])=O

> <standard_relation>
=

> <predicted_activity_value>
7.247951552180561

> <actual_activity_value>
7.309803919971486

> <Publication ID>
nan

> <standard_units>
nM

> hash
6964019981972515013

$$$$
22_
XXILIB    08252103453D 0   0.00000     0.00000

 23 24  0     1  0            999 V2000
    4.9139    2.4724    4.1378 S   0  0  1  0  0  6           0  0  0
    4.0553    2.9202    5.2169 O   0  0  0  0  0  2           0  0  0
    5.7972    3.3980    3.4557 O   0  0  0  0  0  2           0  0  0
   -2.7356    0.0266    2.3103 O   0  0  0  0  0  2           0  0  0
   -4.7792    0.0162   -1.1881 O   0  0  0  0  0  2           0  0  0
   -0.6718    0.0000    1.1711 N   0  0  0  0  0  3           0  0  0
   -0.6199   -0.0022   -1.2018 N   0  0  0  0  0  3           0  0  0
    5.8105    1.1180    4.6559 N   0  0  0  0  0  3           0  0  0
    1.3981    0.0000    0.0000 N   0  0  0  0  0  3           0  0  0
   -2.5687   -0.0141   -2.5058 N   0  0  0  0  0  3           0  0  0
    3.8847    1.7226    2.9171 C   0  0  0  0  0  4           0  0  0
   -2.0234    0.0014    1.1203 C   0  0  0  0  0  4           0  0  0
    0.0000    0.0000    0.0000 C   0  0  0  0  0  4           0  0  0
   -1.9759   -0.0240   -1.2458 C   0  0  0  0  0  4           0  0  0
    2.2033    0.5705    0.9882 C   0  0  0  0  0  4           0  0  0
   -2.7316   -0.0037   -0.0754 C   0  0  0  0  0  4           0  0  0
    4.3068    1.6534    1.5929 C   0  0  0  0  0  4           0  0  0
    2.6339    1.2381    3.2926 C   0  0  0  0  0  4           0  0  0
    3.4668    1.0759    0.6375 C   0  0  0  0  0  4           0  0  0
    1.8001    0.6637    2.3296 C   0  0  0  0  0  4           0  0  0
   -4.1890    0.0216   -0.1164 C   0  0  0  0  0  4           0  0  0
   -1.9196    0.0486    3.4814 C   0  0  0  0  0  4           0  0  0
   -2.8323    0.0745    4.6939 C   0  0  0  0  0  4           0  0  0
  1  2  2  0     0  0
  1  3  2  0     0  0
  1  8  1  0     0  0
  1 11  1  0     0  0
  4 12  1  0     0  0
  4 22  1  0     0  0
  5 21  2  0     0  0
  6 12  2  0     0  0
  6 13  1  0     0  0
  7 13  2  0     0  0
  7 14  1  0     0  0
  9 13  1  0     0  0
  9 15  1  0     0  0
 10 14  1  0     0  0
 11 17  2  0     0  0
 11 18  1  0     0  0
 12 16  1  0     0  0
 14 16  2  0     0  0
 15 19  2  0     0  0
 15 20  1  0     0  0
 16 21  1  0     0  0
 17 19  1  0     0  0
 18 20  2  0     0  0
 22 23  1  0     0  0
M  END
> <Compound >
22

> <standard_type>
pIC50

> <# Confs.>
25

> <canonical_smiles>
CCOC1=NC(NC2=CC=C(S(=O)(N)=O)C=C2)=NC(N)=C1C([H])=O

> <standard_relation>
=

> <predicted_activity_value>
7.247951552180561

> <actual_activity_value>
7.309803919971486

> <Publication ID>
nan

> <standard_units>
nM

> hash
6964019981972515013

$$$$
22_
XXILIB    08252103453D 0   0.00000     0.00000

 23 24  0     1  0            999 V2000
    4.9267   -2.4443    4.1436 S   0  0  1  0  0  6           0  0  0
    4.5202   -1.9026    5.4255 O   0  0  0  0  0  2           0  0  0
    6.2936   -2.3116    3.6785 O   0  0  0  0  0  2           0  0  0
   -2.7356    0.0266    2.3103 O   0  0  0  0  0  2           0  0  0
   -4.7925   -0.5089   -1.0390 O   0  0  0  0  0  2           0  0  0
   -0.6718    0.0000    1.1711 N   0  0  0  0  0  3           0  0  0
   -0.6199   -0.0022   -1.2018 N   0  0  0  0  0  3           0  0  0
    4.4569   -4.0804    4.0484 N   0  0  0  0  0  3           0  0  0
    1.3981    0.0000   -0.0000 N   0  0  0  0  0  3           0  0  0
   -2.5687   -0.0141   -2.5058 N   0  0  0  0  0  3           0  0  0
    3.8762   -1.7413    2.9133 C   0  0  0  0  0  4           0  0  0
   -2.0234    0.0014    1.1203 C   0  0  0  0  0  4           0  0  0
    0.0000    0.0000    0.0000 C   0  0  0  0  0  4           0  0  0
   -1.9759   -0.0240   -1.2458 C   0  0  0  0  0  4           0  0  0
    2.2033   -0.5705    0.9882 C   0  0  0  0  0  4           0  0  0
   -2.7316   -0.0037   -0.0754 C   0  0  0  0  0  4           0  0  0
    4.3052   -1.6569    1.5922 C   0  0  0  0  0  4           0  0  0
    2.6326   -1.2408    3.2921 C   0  0  0  0  0  4           0  0  0
    3.4668   -1.0759    0.6375 C   0  0  0  0  0  4           0  0  0
    1.8018   -0.6600    2.3304 C   0  0  0  0  0  4           0  0  0
   -4.1890    0.0216   -0.1164 C   0  0  0  0  0  4           0  0  0
   -2.0681    0.6977    3.3789 C   0  0  0  0  0  4           0  0  0
   -2.9625    0.6436    4.6040 C   0  0  0  0  0  4           0  0  0
  1  2  2  0     0  0
  1  3  2  0     0  0
  1  8  1  0     0  0
  1 11  1  0     0  0
  4 12  1  0     0  0
  4 22  1  0     0  0
  5 21  2  0     0  0
  6 12  2  0     0  0
  6 13  1  0     0  0
  7 13  2  0     0  0
  7 14  1  0     0  0
  9 13  1  0     0  0
  9 15  1  0     0  0
 10 14  1  0     0  0
 11 17  2  0     0  0
 11 18  1  0     0  0
 12 16  1  0     0  0
 14 16  2  0     0  0
 15 19  2  0     0  0
 15 20  1  0     0  0
 16 21  1  0     0  0
 17 19  1  0     0  0
 18 20  2  0     0  0
 22 23  1  0     0  0
M  END
> <Compound >
22

> <standard_type>
pIC50

> <# Confs.>
25

> <canonical_smiles>
CCOC1=NC(NC2=CC=C(S(=O)(N)=O)C=C2)=NC(N)=C1C([H])=O

> <standard_relation>
=

> <predicted_activity_value>
7.247951552180561

> <actual_activity_value>
7.309803919971486

> <Publication ID>
nan

> <standard_units>
nM

> hash
6964019981972515013

$$$$
22_
XXILIB    08252103453D 0   0.00000     0.00000

 23 24  0     1  0            999 V2000
    4.9267   -2.4443    4.1436 S   0  0  1  0  0  6           0  0  0
    5.8528   -3.3336    3.4701 O   0  0  0  0  0  2           0  0  0
    4.0802   -2.9251    5.2180 O   0  0  0  0  0  2           0  0  0
   -2.7356    0.0266    2.3103 O   0  0  0  0  0  2           0  0  0
   -4.7925   -0.5089   -1.0390 O   0  0  0  0  0  2           0  0  0
   -0.6718    0.0000    1.1711 N   0  0  0  0  0  3           0  0  0
   -0.6199   -0.0022   -1.2018 N   0  0  0  0  0  3           0  0  0
    5.7609   -1.0519    4.6654 N   0  0  0  0  0  3           0  0  0
    1.3981    0.0000   -0.0000 N   0  0  0  0  0  3           0  0  0
   -2.5687   -0.0141   -2.5058 N   0  0  0  0  0  3           0  0  0
    3.8762   -1.7413    2.9133 C   0  0  0  0  0  4           0  0  0
   -2.0234    0.0014    1.1203 C   0  0  0  0  0  4           0  0  0
    0.0000    0.0000    0.0000 C   0  0  0  0  0  4           0  0  0
   -1.9759   -0.0240   -1.2458 C   0  0  0  0  0  4           0  0  0
    2.2033   -0.5705    0.9882 C   0  0  0  0  0  4           0  0  0
   -2.7316   -0.0037   -0.0754 C   0  0  0  0  0  4           0  0  0
    4.3052   -1.6569    1.5922 C   0  0  0  0  0  4           0  0  0
    2.6326   -1.2408    3.2921 C   0  0  0  0  0  4           0  0  0
    3.4668   -1.0759    0.6375 C   0  0  0  0  0  4           0  0  0
    1.8018   -0.6600    2.3304 C   0  0  0  0  0  4           0  0  0
   -4.1890    0.0216   -0.1164 C   0  0  0  0  0  4           0  0  0
   -2.0681    0.6977    3.3789 C   0  0  0  0  0  4           0  0  0
   -2.9625    0.6436    4.6040 C   0  0  0  0  0  4           0  0  0
  1  2  2  0     0  0
  1  3  2  0     0  0
  1  8  1  0     0  0
  1 11  1  0     0  0
  4 12  1  0     0  0
  4 22  1  0     0  0
  5 21  2  0     0  0
  6 12  2  0     0  0
  6 13  1  0     0  0
  7 13  2  0     0  0
  7 14  1  0     0  0
  9 13  1  0     0  0
  9 15  1  0     0  0
 10 14  1  0     0  0
 11 17  2  0     0  0
 11 18  1  0     0  0
 12 16  1  0     0  0
 14 16  2  0     0  0
 15 19  2  0     0  0
 15 20  1  0     0  0
 16 21  1  0     0  0
 17 19  1  0     0  0
 18 20  2  0     0  0
 22 23  1  0     0  0
M  END
> <Compound >
22

> <standard_type>
pIC50

> <# Confs.>
25

> <canonical_smiles>
CCOC1=NC(NC2=CC=C(S(=O)(N)=O)C=C2)=NC(N)=C1C([H])=O

> <standard_relation>
=

> <predicted_activity_value>
7.247951552180561

> <actual_activity_value>
7.309803919971486

> <Publication ID>
nan

> <standard_units>
nM

> hash
6964019981972515013

$$$$
22_
XXILIB    08252103453D 0   0.00000     0.00000

 23 24  0     1  0            999 V2000
    4.9331    2.4167    4.1543 S   0  0  1  0  0  6           0  0  0
    6.2198    1.7522    4.0840 O   0  0  0  0  0  2           0  0  0
    4.1869    2.4655    5.3964 O   0  0  0  0  0  2           0  0  0
   -2.7356    0.0266    2.3103 O   0  0  0  0  0  2           0  0  0
   -4.7925   -0.5089   -1.0390 O   0  0  0  0  0  2           0  0  0
   -0.6718    0.0000    1.1711 N   0  0  0  0  0  3           0  0  0
   -0.6199   -0.0022   -1.2018 N   0  0  0  0  0  3           0  0  0
    5.0780    3.9939    3.5232 N   0  0  0  0  0  3           0  0  0
    1.3981    0.0000    0.0000 N   0  0  0  0  0  3           0  0  0
   -2.5687   -0.0141   -2.5058 N   0  0  0  0  0  3           0  0  0
    3.8897    1.6830    2.9359 C   0  0  0  0  0  4           0  0  0
   -2.0234    0.0014    1.1203 C   0  0  0  0  0  4           0  0  0
    0.0000    0.0000    0.0000 C   0  0  0  0  0  4           0  0  0
   -1.9759   -0.0240   -1.2458 C   0  0  0  0  0  4           0  0  0
    2.2033    0.5705    0.9882 C   0  0  0  0  0  4           0  0  0
   -2.7316   -0.0037   -0.0754 C   0  0  0  0  0  4           0  0  0
    4.4455    1.0525    1.8268 C   0  0  0  0  0  4           0  0  0
    2.5078    1.7784    3.0834 C   0  0  0  0  0  4           0  0  0
    3.6010    0.4977    0.8620 C   0  0  0  0  0  4           0  0  0
    1.6714    1.2219    2.1122 C   0  0  0  0  0  4           0  0  0
   -4.1890    0.0216   -0.1164 C   0  0  0  0  0  4           0  0  0
   -1.9196    0.0486    3.4814 C   0  0  0  0  0  4           0  0  0
   -1.6464    1.4977    3.8409 C   0  0  0  0  0  4           0  0  0
  1  2  2  0     0  0
  1  3  2  0     0  0
  1  8  1  0     0  0
  1 11  1  0     0  0
  4 12  1  0     0  0
  4 22  1  0     0  0
  5 21  2  0     0  0
  6 12  2  0     0  0
  6 13  1  0     0  0
  7 13  2  0     0  0
  7 14  1  0     0  0
  9 13  1  0     0  0
  9 15  1  0     0  0
 10 14  1  0     0  0
 11 17  2  0     0  0
 11 18  1  0     0  0
 12 16  1  0     0  0
 14 16  2  0     0  0
 15 19  2  0     0  0
 15 20  1  0     0  0
 16 21  1  0     0  0
 17 19  1  0     0  0
 18 20  2  0     0  0
 22 23  1  0     0  0
M  END
> <Compound >
22

> <standard_type>
pIC50

> <# Confs.>
25

> <canonical_smiles>
CCOC1=NC(NC2=CC=C(S(=O)(N)=O)C=C2)=NC(N)=C1C([H])=O

> <standard_relation>
=

> <predicted_activity_value>
7.247951552180561

> <actual_activity_value>
7.309803919971486

> <Publication ID>
nan

> <standard_units>
nM

> hash
6964019981972515013

$$$$
22_
XXILIB    08252103453D 0   0.00000     0.00000

 23 24  0     1  0            999 V2000
    4.9331   -2.3894    4.1700 S   0  0  1  0  0  6           0  0  0
    4.1625   -2.4584    5.3962 O   0  0  0  0  0  2           0  0  0
    6.1962   -1.6790    4.1231 O   0  0  0  0  0  2           0  0  0
   -2.7356    0.0266    2.3103 O   0  0  0  0  0  2           0  0  0
   -4.7925   -0.5089   -1.0390 O   0  0  0  0  0  2           0  0  0
   -0.6718    0.0000    1.1711 N   0  0  0  0  0  3           0  0  0
   -0.6199   -0.0022   -1.2018 N   0  0  0  0  0  3           0  0  0
    5.1501   -3.9632    3.5513 N   0  0  0  0  0  3           0  0  0
    1.3981    0.0000    0.0000 N   0  0  0  0  0  3           0  0  0
   -2.5687   -0.0141   -2.5058 N   0  0  0  0  0  3           0  0  0
    3.8897   -1.7011    2.9255 C   0  0  0  0  0  4           0  0  0
   -2.0234    0.0014    1.1203 C   0  0  0  0  0  4           0  0  0
    0.0000    0.0000    0.0000 C   0  0  0  0  0  4           0  0  0
   -1.9759   -0.0240   -1.2458 C   0  0  0  0  0  4           0  0  0
    2.2033   -0.5705    0.9882 C   0  0  0  0  0  4           0  0  0
   -2.7316   -0.0037   -0.0754 C   0  0  0  0  0  4           0  0  0
    4.4455   -1.0558    1.8249 C   0  0  0  0  0  4           0  0  0
    2.5078   -1.7811    3.0818 C   0  0  0  0  0  4           0  0  0
    3.6010   -0.4977    0.8620 C   0  0  0  0  0  4           0  0  0
    1.6714   -1.2183    2.1143 C   0  0  0  0  0  4           0  0  0
   -4.1890    0.0216   -0.1164 C   0  0  0  0  0  4           0  0  0
   -1.9196    0.0486    3.4814 C   0  0  0  0  0  4           0  0  0
   -1.6516   -1.3860    3.8988 C   0  0  0  0  0  4           0  0  0
  1  2  2  0     0  0
  1  3  2  0     0  0
  1  8  1  0     0  0
  1 11  1  0     0  0
  4 12  1  0     0  0
  4 22  1  0     0  0
  5 21  2  0     0  0
  6 12  2  0     0  0
  6 13  1  0     0  0
  7 13  2  0     0  0
  7 14  1  0     0  0
  9 13  1  0     0  0
  9 15  1  0     0  0
 10 14  1  0     0  0
 11 17  2  0     0  0
 11 18  1  0     0  0
 12 16  1  0     0  0
 14 16  2  0     0  0
 15 19  2  0     0  0
 15 20  1  0     0  0
 16 21  1  0     0  0
 17 19  1  0     0  0
 18 20  2  0     0  0
 22 23  1  0     0  0
M  END
> <Compound >
22

> <standard_type>
pIC50

> <# Confs.>
25

> <canonical_smiles>
CCOC1=NC(NC2=CC=C(S(=O)(N)=O)C=C2)=NC(N)=C1C([H])=O

> <standard_relation>
=

> <predicted_activity_value>
7.247951552180561

> <actual_activity_value>
7.309803919971486

> <Publication ID>
nan

> <standard_units>
nM

> hash
6964019981972515013

$$$$
22_
XXILIB    08252103453D 0   0.00000     0.00000

 23 24  0     1  0            999 V2000
    4.9331    2.4167    4.1543 S   0  0  1  0  0  6           0  0  0
    4.1625    3.4440    4.8271 O   0  0  0  0  0  2           0  0  0
    6.1962    2.7312    3.5156 O   0  0  0  0  0  2           0  0  0
   -2.7356    0.0266    2.3103 O   0  0  0  0  0  2           0  0  0
   -4.7925   -0.5089   -1.0390 O   0  0  0  0  0  2           0  0  0
   -0.6718    0.0000    1.1711 N   0  0  0  0  0  3           0  0  0
   -0.6199   -0.0022   -1.2018 N   0  0  0  0  0  3           0  0  0
    5.1501    1.0939    5.2079 N   0  0  0  0  0  3           0  0  0
    1.3981    0.0000    0.0000 N   0  0  0  0  0  3           0  0  0
   -2.5687   -0.0141   -2.5058 N   0  0  0  0  0  3           0  0  0
    3.8897    1.6830    2.9359 C   0  0  0  0  0  4           0  0  0
   -2.0234    0.0014    1.1203 C   0  0  0  0  0  4           0  0  0
    0.0000    0.0000    0.0000 C   0  0  0  0  0  4           0  0  0
   -1.9759   -0.0240   -1.2458 C   0  0  0  0  0  4           0  0  0
    2.2033    0.5705    0.9882 C   0  0  0  0  0  4           0  0  0
   -2.7316   -0.0037   -0.0754 C   0  0  0  0  0  4           0  0  0
    4.4455    1.0525    1.8268 C   0  0  0  0  0  4           0  0  0
    2.5078    1.7784    3.0834 C   0  0  0  0  0  4           0  0  0
    3.6010    0.4977    0.8620 C   0  0  0  0  0  4           0  0  0
    1.6714    1.2219    2.1122 C   0  0  0  0  0  4           0  0  0
   -4.1890    0.0216   -0.1164 C   0  0  0  0  0  4           0  0  0
   -1.9196    0.0486    3.4814 C   0  0  0  0  0  4           0  0  0
   -1.6464    1.4977    3.8409 C   0  0  0  0  0  4           0  0  0
  1  2  2  0     0  0
  1  3  2  0     0  0
  1  8  1  0     0  0
  1 11  1  0     0  0
  4 12  1  0     0  0
  4 22  1  0     0  0
  5 21  2  0     0  0
  6 12  2  0     0  0
  6 13  1  0     0  0
  7 13  2  0     0  0
  7 14  1  0     0  0
  9 13  1  0     0  0
  9 15  1  0     0  0
 10 14  1  0     0  0
 11 17  2  0     0  0
 11 18  1  0     0  0
 12 16  1  0     0  0
 14 16  2  0     0  0
 15 19  2  0     0  0
 15 20  1  0     0  0
 16 21  1  0     0  0
 17 19  1  0     0  0
 18 20  2  0     0  0
 22 23  1  0     0  0
M  END
> <Compound >
22

> <standard_type>
pIC50

> <# Confs.>
25

> <canonical_smiles>
CCOC1=NC(NC2=CC=C(S(=O)(N)=O)C=C2)=NC(N)=C1C([H])=O

> <standard_relation>
=

> <predicted_activity_value>
7.247951552180561

> <actual_activity_value>
7.309803919971486

> <Publication ID>
nan

> <standard_units>
nM

> hash
6964019981972515013

$$$$
22_
XXILIB    08252103453D 0   0.00000     0.00000

 23 24  0     1  0            999 V2000
    4.9331    4.1700    2.3894 S   0  0  1  0  0  6           0  0  0
    6.2198    3.5595    2.6608 O   0  0  0  0  0  2           0  0  0
    4.1869    4.8334    3.4407 O   0  0  0  0  0  2           0  0  0
   -2.7356    0.0266    2.3103 O   0  0  0  0  0  2           0  0  0
   -4.7925   -0.5089   -1.0390 O   0  0  0  0  0  2           0  0  0
   -0.6718    0.0000    1.1711 N   0  0  0  0  0  3           0  0  0
   -0.6199   -0.0022   -1.2018 N   0  0  0  0  0  3           0  0  0
    5.0780    5.2204    1.0543 N   0  0  0  0  0  3           0  0  0
    1.3981    0.0000    0.0000 N   0  0  0  0  0  3           0  0  0
   -2.5687   -0.0141   -2.5058 N   0  0  0  0  0  3           0  0  0
    3.8897    2.9255    1.7011 C   0  0  0  0  0  4           0  0  0
   -2.0234    0.0014    1.1203 C   0  0  0  0  0  4           0  0  0
    0.0000    0.0000    0.0000 C   0  0  0  0  0  4           0  0  0
   -1.9759   -0.0240   -1.2458 C   0  0  0  0  0  4           0  0  0
    2.2033    0.9882    0.5705 C   0  0  0  0  0  4           0  0  0
   -2.7316   -0.0037   -0.0754 C   0  0  0  0  0  4           0  0  0
    4.4455    1.8249    1.0558 C   0  0  0  0  0  4           0  0  0
    2.5078    3.0818    1.7811 C   0  0  0  0  0  4           0  0  0
    3.6010    0.8620    0.4977 C   0  0  0  0  0  4           0  0  0
    1.6714    2.1143    1.2183 C   0  0  0  0  0  4           0  0  0
   -4.1890    0.0216   -0.1164 C   0  0  0  0  0  4           0  0  0
   -2.0705   -0.6036    3.4050 C   0  0  0  0  0  4           0  0  0
   -2.9645   -0.4972    4.6269 C   0  0  0  0  0  4           0  0  0
  1  2  2  0     0  0
  1  3  2  0     0  0
  1  8  1  0     0  0
  1 11  1  0     0  0
  4 12  1  0     0  0
  4 22  1  0     0  0
  5 21  2  0     0  0
  6 12  2  0     0  0
  6 13  1  0     0  0
  7 13  2  0     0  0
  7 14  1  0     0  0
  9 13  1  0     0  0
  9 15  1  0     0  0
 10 14  1  0     0  0
 11 17  2  0     0  0
 11 18  1  0     0  0
 12 16  1  0     0  0
 14 16  2  0     0  0
 15 19  2  0     0  0
 15 20  1  0     0  0
 16 21  1  0     0  0
 17 19  1  0     0  0
 18 20  2  0     0  0
 22 23  1  0     0  0
M  END
> <Compound >
22

> <standard_type>
pIC50

> <# Confs.>
25

> <canonical_smiles>
CCOC1=NC(NC2=CC=C(S(=O)(N)=O)C=C2)=NC(N)=C1C([H])=O

> <standard_relation>
=

> <predicted_activity_value>
7.247951552180561

> <actual_activity_value>
7.309803919971486

> <Publication ID>
nan

> <standard_units>
nM

> hash
6964019981972515013

$$$$
22_
XXILIB    08252103453D 0   0.00000     0.00000

 23 24  0     1  0            999 V2000
    4.9331    4.1700    2.3894 S   0  0  1  0  0  6           0  0  0
    4.1625    5.3962    2.4584 O   0  0  0  0  0  2           0  0  0
    6.1962    4.1231    1.6790 O   0  0  0  0  0  2           0  0  0
   -2.7356    0.0266    2.3103 O   0  0  0  0  0  2           0  0  0
   -4.7925   -0.5089   -1.0390 O   0  0  0  0  0  2           0  0  0
   -0.6718    0.0000    1.1711 N   0  0  0  0  0  3           0  0  0
   -0.6199   -0.0022   -1.2018 N   0  0  0  0  0  3           0  0  0
    5.1501    3.5513    3.9632 N   0  0  0  0  0  3           0  0  0
    1.3981    0.0000    0.0000 N   0  0  0  0  0  3           0  0  0
   -2.5687   -0.0141   -2.5058 N   0  0  0  0  0  3           0  0  0
    3.8897    2.9255    1.7011 C   0  0  0  0  0  4           0  0  0
   -2.0234    0.0014    1.1203 C   0  0  0  0  0  4           0  0  0
    0.0000    0.0000    0.0000 C   0  0  0  0  0  4           0  0  0
   -1.9759   -0.0240   -1.2458 C   0  0  0  0  0  4           0  0  0
    2.2033    0.9882    0.5705 C   0  0  0  0  0  4           0  0  0
   -2.7316   -0.0037   -0.0754 C   0  0  0  0  0  4           0  0  0
    4.4455    1.8249    1.0558 C   0  0  0  0  0  4           0  0  0
    2.5078    3.0818    1.7811 C   0  0  0  0  0  4           0  0  0
    3.6010    0.8620    0.4977 C   0  0  0  0  0  4           0  0  0
    1.6714    2.1143    1.2183 C   0  0  0  0  0  4           0  0  0
   -4.1890    0.0216   -0.1164 C   0  0  0  0  0  4           0  0  0
   -2.0705   -0.6036    3.4050 C   0  0  0  0  0  4           0  0  0
   -2.9645   -0.4972    4.6269 C   0  0  0  0  0  4           0  0  0
  1  2  2  0     0  0
  1  3  2  0     0  0
  1  8  1  0     0  0
  1 11  1  0     0  0
  4 12  1  0     0  0
  4 22  1  0     0  0
  5 21  2  0     0  0
  6 12  2  0     0  0
  6 13  1  0     0  0
  7 13  2  0     0  0
  7 14  1  0     0  0
  9 13  1  0     0  0
  9 15  1  0     0  0
 10 14  1  0     0  0
 11 17  2  0     0  0
 11 18  1  0     0  0
 12 16  1  0     0  0
 14 16  2  0     0  0
 15 19  2  0     0  0
 15 20  1  0     0  0
 16 21  1  0     0  0
 17 19  1  0     0  0
 18 20  2  0     0  0
 22 23  1  0     0  0
M  END
> <Compound >
22

> <standard_type>
pIC50

> <# Confs.>
25

> <canonical_smiles>
CCOC1=NC(NC2=CC=C(S(=O)(N)=O)C=C2)=NC(N)=C1C([H])=O

> <standard_relation>
=

> <predicted_activity_value>
7.247951552180561

> <actual_activity_value>
7.309803919971486

> <Publication ID>
nan

> <standard_units>
nM

> hash
6964019981972515013

$$$$
17_
XXILIB    08252103453D 0   0.00000     0.00000

 33 36  0     1  0            999 V2000
   -3.9749    0.0498    4.4515 S   0  0  2  0  0  6           0  0  0
   -5.2888    0.1579    3.8473 O   0  0  0  0  0  2           0  0  0
   -3.6554   -1.0684    5.3185 O   0  0  0  0  0  2           0  0  0
    6.0047    0.6373    0.9304 O   0  0  0  0  0  2           0  0  0
    4.0386    0.0063   -2.4362 O   0  0  0  0  0  2           0  0  0
   -2.9007    3.9026    6.6554 O   0  0  0  0  0  2           0  0  0
    2.0189    0.0000   -1.2046 N   0  0  0  0  0  3           0  0  0
    2.0738    0.0043    1.1753 N   0  0  0  0  0  3           0  0  0
   -3.6086    1.5053    5.2484 N   0  0  0  0  0  3           0  0  0
    5.5173    0.0526   -0.0448 N   0  0  0  0  0  3           0  0  0
    0.0000    0.0000    0.0000 N   0  0  0  0  0  3           0  0  0
   -2.7914    0.0565    3.1405 C   0  0  0  0  0  4           0  0  0
    3.3743    0.0208   -1.2208 C   0  0  0  0  0  4           0  0  0
    1.4010   -0.0000   -0.0000 C   0  0  0  0  0  4           0  0  0
    3.4231    0.0228    1.1129 C   0  0  0  0  0  4           0  0  0
    4.1417    0.0455   -0.0661 C   0  0  0  0  0  4           0  0  0
   -0.9121    0.0000    1.0579 C   0  0  0  0  0  4           0  0  0
   -3.1051    0.6414    1.9173 C   0  0  0  0  0  4           0  0  0
   -1.5597   -0.5633    3.3392 C   0  0  0  0  0  4           0  0  0
   -2.1646    0.6129    0.8848 C   0  0  0  0  0  4           0  0  0
   -0.6253   -0.5858    2.3009 C   0  0  0  0  0  4           0  0  0
   -2.3516    2.6253    7.0322 C   0  0  2  0  0  4           0  0  0
    3.1772   -0.0305   -3.5736 C   0  0  0  0  0  4           0  0  0
   -3.8323    4.3147    7.6667 C   0  0  0  0  0  4           0  0  0
   -2.2656    1.7124    5.8168 C   0  0  0  0  0  4           0  0  0
    4.0109   -0.0437   -4.8535 C   0  0  1  0  0  4           0  0  0
   -3.2719    2.0849    8.1154 C   0  0  0  0  0  4           0  0  0
   -3.6796    3.3519    8.8240 C   0  0  0  0  0  4           0  0  0
    3.0989   -0.0832   -6.0870 C   0  0  0  0  0  4           0  0  0
    4.9601    1.1644   -4.9173 C   0  0  0  0  0  4           0  0  0
    3.9007   -0.0594   -7.3861 C   0  0  0  0  0  4           0  0  0
    5.7575    1.1901   -6.2195 C   0  0  0  0  0  4           0  0  0
    4.8472    1.1353   -7.4417 C   0  0  0  0  0  4           0  0  0
  1  2  2  0     0  0
  1  3  2  0     0  0
  1  9  1  0     0  0
  1 12  1  0     0  0
  4 10  2  0     0  0
  5 13  1  0     0  0
  5 23  1  0     0  0
  6 22  1  0     0  0
  6 24  1  0     0  0
  7 13  2  0     0  0
  7 14  1  0     0  0
  8 14  2  0     0  0
  8 15  1  0     0  0
  9 25  1  0     0  0
 10 16  1  0     0  0
 11 14  1  0     0  0
 11 17  1  0     0  0
 12 18  2  0     0  0
 12 19  1  0     0  0
 13 16  1  0     0  0
 15 16  2  0     0  0
 17 20  2  0     0  0
 17 21  1  0     0  0
 18 20  1  0     0  0
 19 21  2  0     0  0
 22 25  1  0     0  0
 22 27  1  0     0  0
 23 26  1  0     0  0
 24 28  1  0     0  0
 26 29  1  0     0  0
 26 30  1  0     0  0
 27 28  1  0     0  0
 29 31  1  0     0  0
 30 32  1  0     0  0
 31 33  1  0     0  0
 32 33  1  0     0  0
M  END
> <Compound >
17

> <standard_type>
pIC50

> <# Confs.>
25

> <canonical_smiles>
O=NC(C(OCC1CCCCC1)=N2)=CN=C2NC3=CC=C(S(=O)(NCC4OCCC4)=O)C=C3

> <standard_relation>
=

> <predicted_activity_value>
7.924453038607469

> <actual_activity_value>
8.09151498112135

> <Publication ID>
Ece et al.2013

> <standard_units>
nM

> hash
6954743088815454028

$$$$
17_
XXILIB    08252103453D 0   0.00000     0.00000

 33 36  0     1  0            999 V2000
   -3.9749    0.0498    4.4515 S   0  0  2  0  0  6           0  0  0
   -5.2888    0.1579    3.8473 O   0  0  0  0  0  2           0  0  0
   -3.6554   -1.0684    5.3185 O   0  0  0  0  0  2           0  0  0
    6.0047    0.6373    0.9304 O   0  0  0  0  0  2           0  0  0
    4.0386    0.0063   -2.4362 O   0  0  0  0  0  2           0  0  0
   -2.9007    3.9026    6.6554 O   0  0  0  0  0  2           0  0  0
    2.0189    0.0000   -1.2046 N   0  0  0  0  0  3           0  0  0
    2.0738    0.0043    1.1753 N   0  0  0  0  0  3           0  0  0
   -3.6086    1.5053    5.2484 N   0  0  0  0  0  3           0  0  0
    5.5173    0.0526   -0.0448 N   0  0  0  0  0  3           0  0  0
    0.0000    0.0000    0.0000 N   0  0  0  0  0  3           0  0  0
   -2.7914    0.0565    3.1405 C   0  0  0  0  0  4           0  0  0
    3.3743    0.0208   -1.2208 C   0  0  0  0  0  4           0  0  0
    1.4010   -0.0000   -0.0000 C   0  0  0  0  0  4           0  0  0
    3.4231    0.0228    1.1129 C   0  0  0  0  0  4           0  0  0
    4.1417    0.0455   -0.0661 C   0  0  0  0  0  4           0  0  0
   -0.9121    0.0000    1.0579 C   0  0  0  0  0  4           0  0  0
   -3.1051    0.6414    1.9173 C   0  0  0  0  0  4           0  0  0
   -1.5597   -0.5633    3.3392 C   0  0  0  0  0  4           0  0  0
   -2.1646    0.6129    0.8848 C   0  0  0  0  0  4           0  0  0
   -0.6253   -0.5858    2.3009 C   0  0  0  0  0  4           0  0  0
   -2.3516    2.6253    7.0322 C   0  0  2  0  0  4           0  0  0
    3.1772   -0.0305   -3.5736 C   0  0  0  0  0  4           0  0  0
   -3.8323    4.3147    7.6667 C   0  0  0  0  0  4           0  0  0
   -2.2656    1.7124    5.8168 C   0  0  0  0  0  4           0  0  0
    4.0109   -0.0437   -4.8535 C   0  0  1  0  0  4           0  0  0
   -3.2719    2.0849    8.1154 C   0  0  0  0  0  4           0  0  0
   -3.6796    3.3519    8.8240 C   0  0  0  0  0  4           0  0  0
    4.9252   -1.2757   -4.8850 C   0  0  0  0  0  4           0  0  0
    3.1185    0.0036   -6.1050 C   0  0  0  0  0  4           0  0  0
    5.7466   -1.3397   -6.1704 C   0  0  0  0  0  4           0  0  0
    3.9408   -0.0659   -7.3899 C   0  0  0  0  0  4           0  0  0
    4.8586   -1.2836   -7.4093 C   0  0  0  0  0  4           0  0  0
  1  2  2  0     0  0
  1  3  2  0     0  0
  1  9  1  0     0  0
  1 12  1  0     0  0
  4 10  2  0     0  0
  5 13  1  0     0  0
  5 23  1  0     0  0
  6 22  1  0     0  0
  6 24  1  0     0  0
  7 13  2  0     0  0
  7 14  1  0     0  0
  8 14  2  0     0  0
  8 15  1  0     0  0
  9 25  1  0     0  0
 10 16  1  0     0  0
 11 14  1  0     0  0
 11 17  1  0     0  0
 12 18  2  0     0  0
 12 19  1  0     0  0
 13 16  1  0     0  0
 15 16  2  0     0  0
 17 20  2  0     0  0
 17 21  1  0     0  0
 18 20  1  0     0  0
 19 21  2  0     0  0
 22 25  1  0     0  0
 22 27  1  0     0  0
 23 26  1  0     0  0
 24 28  1  0     0  0
 26 29  1  0     0  0
 26 30  1  0     0  0
 27 28  1  0     0  0
 29 31  1  0     0  0
 30 32  1  0     0  0
 31 33  1  0     0  0
 32 33  1  0     0  0
M  END
> <Compound >
17

> <standard_type>
pIC50

> <# Confs.>
25

> <canonical_smiles>
O=NC(C(OCC1CCCCC1)=N2)=CN=C2NC3=CC=C(S(=O)(NCC4OCCC4)=O)C=C3

> <standard_relation>
=

> <predicted_activity_value>
7.924453038607469

> <actual_activity_value>
8.09151498112135

> <Publication ID>
Ece et al.2013

> <standard_units>
nM

> hash
6954743088815454028

$$$$
17_
XXILIB    08252103453D 0   0.00000     0.00000

 33 36  0     1  0            999 V2000
   -3.9749    0.0498    4.4515 S   0  0  2  0  0  6           0  0  0
   -5.2888    0.1579    3.8473 O   0  0  0  0  0  2           0  0  0
   -3.6554   -1.0684    5.3185 O   0  0  0  0  0  2           0  0  0
    6.0047    0.6373    0.9304 O   0  0  0  0  0  2           0  0  0
    4.0386    0.0063   -2.4362 O   0  0  0  0  0  2           0  0  0
   -2.9007    3.9026    6.6554 O   0  0  0  0  0  2           0  0  0
    2.0189    0.0000   -1.2046 N   0  0  0  0  0  3           0  0  0
    2.0738    0.0043    1.1753 N   0  0  0  0  0  3           0  0  0
   -3.6086    1.5053    5.2484 N   0  0  0  0  0  3           0  0  0
    5.5173    0.0526   -0.0448 N   0  0  0  0  0  3           0  0  0
    0.0000    0.0000    0.0000 N   0  0  0  0  0  3           0  0  0
   -2.7914    0.0565    3.1405 C   0  0  0  0  0  4           0  0  0
    3.3743    0.0208   -1.2208 C   0  0  0  0  0  4           0  0  0
    1.4010   -0.0000   -0.0000 C   0  0  0  0  0  4           0  0  0
    3.4231    0.0228    1.1129 C   0  0  0  0  0  4           0  0  0
    4.1417    0.0455   -0.0661 C   0  0  0  0  0  4           0  0  0
   -0.9121    0.0000    1.0579 C   0  0  0  0  0  4           0  0  0
   -3.1051    0.6414    1.9173 C   0  0  0  0  0  4           0  0  0
   -1.5597   -0.5633    3.3392 C   0  0  0  0  0  4           0  0  0
   -2.1646    0.6129    0.8848 C   0  0  0  0  0  4           0  0  0
   -0.6253   -0.5858    2.3009 C   0  0  0  0  0  4           0  0  0
   -2.3516    2.6253    7.0322 C   0  0  2  0  0  4           0  0  0
    3.1772   -0.0305   -3.5736 C   0  0  0  0  0  4           0  0  0
   -3.8323    4.3147    7.6667 C   0  0  0  0  0  4           0  0  0
   -2.2656    1.7124    5.8168 C   0  0  0  0  0  4           0  0  0
    4.0109   -0.0437   -4.8535 C   0  0  1  0  0  4           0  0  0
   -3.2719    2.0849    8.1154 C   0  0  0  0  0  4           0  0  0
   -3.6796    3.3519    8.8240 C   0  0  0  0  0  4           0  0  0
    4.8864    1.2139   -4.9360 C   0  0  0  0  0  4           0  0  0
    4.8727   -1.3137   -4.9486 C   0  0  0  0  0  4           0  0  0
    5.7617    1.2145   -6.1869 C   0  0  0  0  0  4           0  0  0
    5.7518   -1.3094   -6.1974 C   0  0  0  0  0  4           0  0  0
    6.6084   -0.0506   -6.2822 C   0  0  0  0  0  4           0  0  0
  1  2  2  0     0  0
  1  3  2  0     0  0
  1  9  1  0     0  0
  1 12  1  0     0  0
  4 10  2  0     0  0
  5 13  1  0     0  0
  5 23  1  0     0  0
  6 22  1  0     0  0
  6 24  1  0     0  0
  7 13  2  0     0  0
  7 14  1  0     0  0
  8 14  2  0     0  0
  8 15  1  0     0  0
  9 25  1  0     0  0
 10 16  1  0     0  0
 11 14  1  0     0  0
 11 17  1  0     0  0
 12 18  2  0     0  0
 12 19  1  0     0  0
 13 16  1  0     0  0
 15 16  2  0     0  0
 17 20  2  0     0  0
 17 21  1  0     0  0
 18 20  1  0     0  0
 19 21  2  0     0  0
 22 25  1  0     0  0
 22 27  1  0     0  0
 23 26  1  0     0  0
 24 28  1  0     0  0
 26 29  1  0     0  0
 26 30  1  0     0  0
 27 28  1  0     0  0
 29 31  1  0     0  0
 30 32  1  0     0  0
 31 33  1  0     0  0
 32 33  1  0     0  0
M  END
> <Compound >
17

> <standard_type>
pIC50

> <# Confs.>
25

> <canonical_smiles>
O=NC(C(OCC1CCCCC1)=N2)=CN=C2NC3=CC=C(S(=O)(NCC4OCCC4)=O)C=C3

> <standard_relation>
=

> <predicted_activity_value>
7.924453038607469

> <actual_activity_value>
8.09151498112135

> <Publication ID>
Ece et al.2013

> <standard_units>
nM

> hash
6954743088815454028

$$$$
17_
XXILIB    08252103453D 0   0.00000     0.00000

 33 36  0     1  0            999 V2000
   -3.9749    0.0498    4.4515 S   0  0  2  0  0  6           0  0  0
   -5.2888    0.1579    3.8473 O   0  0  0  0  0  2           0  0  0
   -3.6554   -1.0684    5.3185 O   0  0  0  0  0  2           0  0  0
    6.0047   -0.6373   -0.9304 O   0  0  0  0  0  2           0  0  0
    4.0386   -0.0063    2.4362 O   0  0  0  0  0  2           0  0  0
   -2.9007    3.9026    6.6554 O   0  0  0  0  0  2           0  0  0
    2.0189   -0.0000    1.2046 N   0  0  0  0  0  3           0  0  0
    2.0738   -0.0043   -1.1753 N   0  0  0  0  0  3           0  0  0
   -3.6086    1.5053    5.2484 N   0  0  0  0  0  3           0  0  0
    5.5173   -0.0526    0.0448 N   0  0  0  0  0  3           0  0  0
    0.0000    0.0000    0.0000 N   0  0  0  0  0  3           0  0  0
   -2.7914    0.0565    3.1405 C   0  0  0  0  0  4           0  0  0
    3.3743   -0.0208    1.2208 C   0  0  0  0  0  4           0  0  0
    1.4010    0.0000    0.0000 C   0  0  0  0  0  4           0  0  0
    3.4231   -0.0228   -1.1129 C   0  0  0  0  0  4           0  0  0
    4.1417   -0.0455    0.0661 C   0  0  0  0  0  4           0  0  0
   -0.9121    0.0000    1.0579 C   0  0  0  0  0  4           0  0  0
   -3.1051    0.6414    1.9173 C   0  0  0  0  0  4           0  0  0
   -1.5597   -0.5633    3.3392 C   0  0  0  0  0  4           0  0  0
   -2.1646    0.6129    0.8848 C   0  0  0  0  0  4           0  0  0
   -0.6253   -0.5858    2.3009 C   0  0  0  0  0  4           0  0  0
   -2.3516    2.6253    7.0322 C   0  0  2  0  0  4           0  0  0
    3.1772    0.0305    3.5736 C   0  0  0  0  0  4           0  0  0
   -3.8323    4.3147    7.6667 C   0  0  0  0  0  4           0  0  0
   -2.2656    1.7124    5.8168 C   0  0  0  0  0  4           0  0  0
    4.0109    0.0437    4.8535 C   0  0  1  0  0  4           0  0  0
   -3.2719    2.0849    8.1154 C   0  0  0  0  0  4           0  0  0
   -3.6796    3.3519    8.8240 C   0  0  0  0  0  4           0  0  0
    3.0989    0.0832    6.0870 C   0  0  0  0  0  4           0  0  0
    4.9601   -1.1644    4.9173 C   0  0  0  0  0  4           0  0  0
    3.9007    0.0594    7.3861 C   0  0  0  0  0  4           0  0  0
    5.7575   -1.1901    6.2195 C   0  0  0  0  0  4           0  0  0
    4.8472   -1.1353    7.4417 C   0  0  0  0  0  4           0  0  0
  1  2  2  0     0  0
  1  3  2  0     0  0
  1  9  1  0     0  0
  1 12  1  0     0  0
  4 10  2  0     0  0
  5 13  1  0     0  0
  5 23  1  0     0  0
  6 22  1  0     0  0
  6 24  1  0     0  0
  7 13  2  0     0  0
  7 14  1  0     0  0
  8 14  2  0     0  0
  8 15  1  0     0  0
  9 25  1  0     0  0
 10 16  1  0     0  0
 11 14  1  0     0  0
 11 17  1  0     0  0
 12 18  2  0     0  0
 12 19  1  0     0  0
 13 16  1  0     0  0
 15 16  2  0     0  0
 17 20  2  0     0  0
 17 21  1  0     0  0
 18 20  1  0     0  0
 19 21  2  0     0  0
 22 25  1  0     0  0
 22 27  1  0     0  0
 23 26  1  0     0  0
 24 28  1  0     0  0
 26 29  1  0     0  0
 26 30  1  0     0  0
 27 28  1  0     0  0
 29 31  1  0     0  0
 30 32  1  0     0  0
 31 33  1  0     0  0
 32 33  1  0     0  0
M  END
> <Compound >
17

> <standard_type>
pIC50

> <# Confs.>
25

> <canonical_smiles>
O=NC(C(OCC1CCCCC1)=N2)=CN=C2NC3=CC=C(S(=O)(NCC4OCCC4)=O)C=C3

> <standard_relation>
=

> <predicted_activity_value>
7.924453038607469

> <actual_activity_value>
8.09151498112135

> <Publication ID>
Ece et al.2013

> <standard_units>
nM

> hash
6954743088815454028

$$$$
17_
XXILIB    08252103453D 0   0.00000     0.00000

 33 36  0     1  0            999 V2000
   -3.9749    0.0498    4.4515 S   0  0  2  0  0  6           0  0  0
   -5.2888    0.1579    3.8473 O   0  0  0  0  0  2           0  0  0
   -3.6554   -1.0684    5.3185 O   0  0  0  0  0  2           0  0  0
    6.0047   -0.6373   -0.9304 O   0  0  0  0  0  2           0  0  0
    4.0386   -0.0063    2.4362 O   0  0  0  0  0  2           0  0  0
   -2.9007    3.9026    6.6554 O   0  0  0  0  0  2           0  0  0
    2.0189   -0.0000    1.2046 N   0  0  0  0  0  3           0  0  0
    2.0738   -0.0043   -1.1753 N   0  0  0  0  0  3           0  0  0
   -3.6086    1.5053    5.2484 N   0  0  0  0  0  3           0  0  0
    5.5173   -0.0526    0.0448 N   0  0  0  0  0  3           0  0  0
    0.0000    0.0000    0.0000 N   0  0  0  0  0  3           0  0  0
   -2.7914    0.0565    3.1405 C   0  0  0  0  0  4           0  0  0
    3.3743   -0.0208    1.2208 C   0  0  0  0  0  4           0  0  0
    1.4010    0.0000    0.0000 C   0  0  0  0  0  4           0  0  0
    3.4231   -0.0228   -1.1129 C   0  0  0  0  0  4           0  0  0
    4.1417   -0.0455    0.0661 C   0  0  0  0  0  4           0  0  0
   -0.9121    0.0000    1.0579 C   0  0  0  0  0  4           0  0  0
   -3.1051    0.6414    1.9173 C   0  0  0  0  0  4           0  0  0
   -1.5597   -0.5633    3.3392 C   0  0  0  0  0  4           0  0  0
   -2.1646    0.6129    0.8848 C   0  0  0  0  0  4           0  0  0
   -0.6253   -0.5858    2.3009 C   0  0  0  0  0  4           0  0  0
   -2.3516    2.6253    7.0322 C   0  0  2  0  0  4           0  0  0
    3.1772    0.0305    3.5736 C   0  0  0  0  0  4           0  0  0
   -3.8323    4.3147    7.6667 C   0  0  0  0  0  4           0  0  0
   -2.2656    1.7124    5.8168 C   0  0  0  0  0  4           0  0  0
    4.0109    0.0437    4.8535 C   0  0  1  0  0  4           0  0  0
   -3.2719    2.0849    8.1154 C   0  0  0  0  0  4           0  0  0
   -3.6796    3.3519    8.8240 C   0  0  0  0  0  4           0  0  0
    4.9252    1.2757    4.8850 C   0  0  0  0  0  4           0  0  0
    3.1185   -0.0036    6.1050 C   0  0  0  0  0  4           0  0  0
    5.7466    1.3397    6.1704 C   0  0  0  0  0  4           0  0  0
    3.9408    0.0659    7.3899 C   0  0  0  0  0  4           0  0  0
    4.8586    1.2836    7.4093 C   0  0  0  0  0  4           0  0  0
  1  2  2  0     0  0
  1  3  2  0     0  0
  1  9  1  0     0  0
  1 12  1  0     0  0
  4 10  2  0     0  0
  5 13  1  0     0  0
  5 23  1  0     0  0
  6 22  1  0     0  0
  6 24  1  0     0  0
  7 13  2  0     0  0
  7 14  1  0     0  0
  8 14  2  0     0  0
  8 15  1  0     0  0
  9 25  1  0     0  0
 10 16  1  0     0  0
 11 14  1  0     0  0
 11 17  1  0     0  0
 12 18  2  0     0  0
 12 19  1  0     0  0
 13 16  1  0     0  0
 15 16  2  0     0  0
 17 20  2  0     0  0
 17 21  1  0     0  0
 18 20  1  0     0  0
 19 21  2  0     0  0
 22 25  1  0     0  0
 22 27  1  0     0  0
 23 26  1  0     0  0
 24 28  1  0     0  0
 26 29  1  0     0  0
 26 30  1  0     0  0
 27 28  1  0     0  0
 29 31  1  0     0  0
 30 32  1  0     0  0
 31 33  1  0     0  0
 32 33  1  0     0  0
M  END
> <Compound >
17

> <standard_type>
pIC50

> <# Confs.>
25

> <canonical_smiles>
O=NC(C(OCC1CCCCC1)=N2)=CN=C2NC3=CC=C(S(=O)(NCC4OCCC4)=O)C=C3

> <standard_relation>
=

> <predicted_activity_value>
7.924453038607469

> <actual_activity_value>
8.09151498112135

> <Publication ID>
Ece et al.2013

> <standard_units>
nM

> hash
6954743088815454028

$$$$
17_
XXILIB    08252103453D 0   0.00000     0.00000

 33 36  0     1  0            999 V2000
   -3.9683   -0.0649    4.4572 S   0  0  2  0  0  6           0  0  0
   -4.8269   -1.2144    4.2456 O   0  0  0  0  0  2           0  0  0
   -3.2214    0.0758    5.6927 O   0  0  0  0  0  2           0  0  0
    6.0047    0.6373    0.9304 O   0  0  0  0  0  2           0  0  0
    4.0386    0.0063   -2.4362 O   0  0  0  0  0  2           0  0  0
   -6.2742    3.8123    3.7469 O   0  0  0  0  0  2           0  0  0
    2.0189    0.0000   -1.2046 N   0  0  0  0  0  3           0  0  0
    2.0738    0.0043    1.1753 N   0  0  0  0  0  3           0  0  0
   -4.8588    1.3537    4.1705 N   0  0  0  0  0  3           0  0  0
    5.5173    0.0526   -0.0448 N   0  0  0  0  0  3           0  0  0
    0.0000    0.0000    0.0000 N   0  0  0  0  0  3           0  0  0
   -2.8045   -0.0267    3.1292 C   0  0  0  0  0  4           0  0  0
    3.3743    0.0208   -1.2208 C   0  0  0  0  0  4           0  0  0
    1.4010   -0.0000   -0.0000 C   0  0  0  0  0  4           0  0  0
    3.4231    0.0228    1.1129 C   0  0  0  0  0  4           0  0  0
    4.1417    0.0455   -0.0661 C   0  0  0  0  0  4           0  0  0
   -0.9121   -0.0000    1.0579 C   0  0  0  0  0  4           0  0  0
   -3.1093   -0.6317    1.9136 C   0  0  0  0  0  4           0  0  0
   -1.5686    0.5836    3.3316 C   0  0  0  0  0  4           0  0  0
   -2.1646   -0.6129    0.8848 C   0  0  0  0  0  4           0  0  0
   -0.6307    0.5981    2.2963 C   0  0  0  0  0  4           0  0  0
   -5.1380    3.7470    4.6298 C   0  0  2  0  0  4           0  0  0
    3.1772   -0.0305   -3.5736 C   0  0  0  0  0  4           0  0  0
   -7.4590    3.9793    4.5399 C   0  0  0  0  0  4           0  0  0
   -4.1774    2.6596    4.1686 C   0  0  0  0  0  4           0  0  0
    4.0109   -0.0437   -4.8535 C   0  0  1  0  0  4           0  0  0
   -5.7078    3.4857    6.0153 C   0  0  0  0  0  4           0  0  0
   -7.0048    4.2525    5.9572 C   0  0  0  0  0  4           0  0  0
    3.0989   -0.0832   -6.0870 C   0  0  0  0  0  4           0  0  0
    4.9601    1.1644   -4.9173 C   0  0  0  0  0  4           0  0  0
    3.9007   -0.0594   -7.3861 C   0  0  0  0  0  4           0  0  0
    5.7575    1.1901   -6.2195 C   0  0  0  0  0  4           0  0  0
    4.8472    1.1353   -7.4417 C   0  0  0  0  0  4           0  0  0
  1  2  2  0     0  0
  1  3  2  0     0  0
  1  9  1  0     0  0
  1 12  1  0     0  0
  4 10  2  0     0  0
  5 13  1  0     0  0
  5 23  1  0     0  0
  6 22  1  0     0  0
  6 24  1  0     0  0
  7 13  2  0     0  0
  7 14  1  0     0  0
  8 14  2  0     0  0
  8 15  1  0     0  0
  9 25  1  0     0  0
 10 16  1  0     0  0
 11 14  1  0     0  0
 11 17  1  0     0  0
 12 18  2  0     0  0
 12 19  1  0     0  0
 13 16  1  0     0  0
 15 16  2  0     0  0
 17 20  2  0     0  0
 17 21  1  0     0  0
 18 20  1  0     0  0
 19 21  2  0     0  0
 22 25  1  0     0  0
 22 27  1  0     0  0
 23 26  1  0     0  0
 24 28  1  0     0  0
 26 29  1  0     0  0
 26 30  1  0     0  0
 27 28  1  0     0  0
 29 31  1  0     0  0
 30 32  1  0     0  0
 31 33  1  0     0  0
 32 33  1  0     0  0
M  END
> <Compound >
17

> <standard_type>
pIC50

> <# Confs.>
25

> <canonical_smiles>
O=NC(C(OCC1CCCCC1)=N2)=CN=C2NC3=CC=C(S(=O)(NCC4OCCC4)=O)C=C3

> <standard_relation>
=

> <predicted_activity_value>
7.924453038607469

> <actual_activity_value>
8.09151498112135

> <Publication ID>
Ece et al.2013

> <standard_units>
nM

> hash
6954743088815454028

$$$$
17_
XXILIB    08252103453D 0   0.00000     0.00000

 33 36  0     1  0            999 V2000
   -3.9832   -0.0087    4.4443 S   0  0  2  0  0  6           0  0  0
   -5.1971   -0.6100    3.9264 O   0  0  0  0  0  2           0  0  0
   -3.3223   -0.5731    5.6057 O   0  0  0  0  0  2           0  0  0
    6.0047    0.6373    0.9304 O   0  0  0  0  0  2           0  0  0
    4.0386    0.0063   -2.4362 O   0  0  0  0  0  2           0  0  0
   -4.5966    4.4542    5.1933 O   0  0  0  0  0  2           0  0  0
    2.0189    0.0000   -1.2046 N   0  0  0  0  0  3           0  0  0
    2.0738    0.0043    1.1753 N   0  0  0  0  0  3           0  0  0
   -4.2491    1.6507    4.6962 N   0  0  0  0  0  3           0  0  0
    5.5173    0.0526   -0.0448 N   0  0  0  0  0  3           0  0  0
    0.0000    0.0000    0.0000 N   0  0  0  0  0  3           0  0  0
   -2.8064    0.0172    3.1275 C   0  0  0  0  0  4           0  0  0
    3.3743    0.0208   -1.2208 C   0  0  0  0  0  4           0  0  0
    1.4010   -0.0000   -0.0000 C   0  0  0  0  0  4           0  0  0
    3.4231    0.0228    1.1129 C   0  0  0  0  0  4           0  0  0
    4.1417    0.0455   -0.0661 C   0  0  0  0  0  4           0  0  0
   -0.9121   -0.0000    1.0579 C   0  0  0  0  0  4           0  0  0
   -3.2364    0.0056    1.8041 C   0  0  0  0  0  4           0  0  0
   -1.4478    0.0117    3.4357 C   0  0  0  0  0  4           0  0  0
   -2.2890    0.0000    0.7776 C   0  0  0  0  0  4           0  0  0
   -0.5079    0.0071    2.4022 C   0  0  0  0  0  4           0  0  0
   -3.6310    3.6791    5.9291 C   0  0  2  0  0  4           0  0  0
    3.1772   -0.0305   -3.5736 C   0  0  0  0  0  4           0  0  0
   -5.6796    4.7886    6.0739 C   0  0  0  0  0  4           0  0  0
   -3.1254    2.5242    5.0756 C   0  0  0  0  0  4           0  0  0
    4.0109   -0.0437   -4.8535 C   0  0  1  0  0  4           0  0  0
   -4.3477    3.2162    7.1879 C   0  0  0  0  0  4           0  0  0
   -5.2508    4.3904    7.4694 C   0  0  0  0  0  4           0  0  0
    3.0989   -0.0832   -6.0870 C   0  0  0  0  0  4           0  0  0
    4.9601    1.1644   -4.9173 C   0  0  0  0  0  4           0  0  0
    3.9007   -0.0594   -7.3861 C   0  0  0  0  0  4           0  0  0
    5.7575    1.1901   -6.2195 C   0  0  0  0  0  4           0  0  0
    4.8472    1.1353   -7.4417 C   0  0  0  0  0  4           0  0  0
  1  2  2  0     0  0
  1  3  2  0     0  0
  1  9  1  0     0  0
  1 12  1  0     0  0
  4 10  2  0     0  0
  5 13  1  0     0  0
  5 23  1  0     0  0
  6 22  1  0     0  0
  6 24  1  0     0  0
  7 13  2  0     0  0
  7 14  1  0     0  0
  8 14  2  0     0  0
  8 15  1  0     0  0
  9 25  1  0     0  0
 10 16  1  0     0  0
 11 14  1  0     0  0
 11 17  1  0     0  0
 12 18  2  0     0  0
 12 19  1  0     0  0
 13 16  1  0     0  0
 15 16  2  0     0  0
 17 20  2  0     0  0
 17 21  1  0     0  0
 18 20  1  0     0  0
 19 21  2  0     0  0
 22 25  1  0     0  0
 22 27  1  0     0  0
 23 26  1  0     0  0
 24 28  1  0     0  0
 26 29  1  0     0  0
 26 30  1  0     0  0
 27 28  1  0     0  0
 29 31  1  0     0  0
 30 32  1  0     0  0
 31 33  1  0     0  0
 32 33  1  0     0  0
M  END
> <Compound >
17

> <standard_type>
pIC50

> <# Confs.>
25

> <canonical_smiles>
O=NC(C(OCC1CCCCC1)=N2)=CN=C2NC3=CC=C(S(=O)(NCC4OCCC4)=O)C=C3

> <standard_relation>
=

> <predicted_activity_value>
7.924453038607469

> <actual_activity_value>
8.09151498112135

> <Publication ID>
Ece et al.2013

> <standard_units>
nM

> hash
6954743088815454028

$$$$
17_
XXILIB    08252103453D 0   0.00000     0.00000

 33 36  0     1  0            999 V2000
   -3.9683   -0.0649    4.4572 S   0  0  2  0  0  6           0  0  0
   -4.8269   -1.2144    4.2456 O   0  0  0  0  0  2           0  0  0
   -3.2214    0.0758    5.6927 O   0  0  0  0  0  2           0  0  0
    6.0047    0.6373    0.9304 O   0  0  0  0  0  2           0  0  0
    4.0386    0.0063   -2.4362 O   0  0  0  0  0  2           0  0  0
   -6.2742    3.8123    3.7469 O   0  0  0  0  0  2           0  0  0
    2.0189    0.0000   -1.2046 N   0  0  0  0  0  3           0  0  0
    2.0738    0.0043    1.1753 N   0  0  0  0  0  3           0  0  0
   -4.8588    1.3537    4.1705 N   0  0  0  0  0  3           0  0  0
    5.5173    0.0526   -0.0448 N   0  0  0  0  0  3           0  0  0
    0.0000    0.0000    0.0000 N   0  0  0  0  0  3           0  0  0
   -2.8045   -0.0267    3.1292 C   0  0  0  0  0  4           0  0  0
    3.3743    0.0208   -1.2208 C   0  0  0  0  0  4           0  0  0
    1.4010   -0.0000   -0.0000 C   0  0  0  0  0  4           0  0  0
    3.4231    0.0228    1.1129 C   0  0  0  0  0  4           0  0  0
    4.1417    0.0455   -0.0661 C   0  0  0  0  0  4           0  0  0
   -0.9121   -0.0000    1.0579 C   0  0  0  0  0  4           0  0  0
   -3.1093   -0.6317    1.9136 C   0  0  0  0  0  4           0  0  0
   -1.5686    0.5836    3.3316 C   0  0  0  0  0  4           0  0  0
   -2.1646   -0.6129    0.8848 C   0  0  0  0  0  4           0  0  0
   -0.6307    0.5981    2.2963 C   0  0  0  0  0  4           0  0  0
   -5.1380    3.7470    4.6298 C   0  0  2  0  0  4           0  0  0
    3.1772   -0.0305   -3.5736 C   0  0  0  0  0  4           0  0  0
   -7.4590    3.9793    4.5399 C   0  0  0  0  0  4           0  0  0
   -4.1774    2.6596    4.1686 C   0  0  0  0  0  4           0  0  0
    4.0109   -0.0437   -4.8535 C   0  0  1  0  0  4           0  0  0
   -5.7078    3.4857    6.0153 C   0  0  0  0  0  4           0  0  0
   -7.0048    4.2525    5.9572 C   0  0  0  0  0  4           0  0  0
    4.9252   -1.2757   -4.8850 C   0  0  0  0  0  4           0  0  0
    3.1185    0.0036   -6.1050 C   0  0  0  0  0  4           0  0  0
    5.7466   -1.3397   -6.1704 C   0  0  0  0  0  4           0  0  0
    3.9408   -0.0659   -7.3899 C   0  0  0  0  0  4           0  0  0
    4.8586   -1.2836   -7.4093 C   0  0  0  0  0  4           0  0  0
  1  2  2  0     0  0
  1  3  2  0     0  0
  1  9  1  0     0  0
  1 12  1  0     0  0
  4 10  2  0     0  0
  5 13  1  0     0  0
  5 23  1  0     0  0
  6 22  1  0     0  0
  6 24  1  0     0  0
  7 13  2  0     0  0
  7 14  1  0     0  0
  8 14  2  0     0  0
  8 15  1  0     0  0
  9 25  1  0     0  0
 10 16  1  0     0  0
 11 14  1  0     0  0
 11 17  1  0     0  0
 12 18  2  0     0  0
 12 19  1  0     0  0
 13 16  1  0     0  0
 15 16  2  0     0  0
 17 20  2  0     0  0
 17 21  1  0     0  0
 18 20  1  0     0  0
 19 21  2  0     0  0
 22 25  1  0     0  0
 22 27  1  0     0  0
 23 26  1  0     0  0
 24 28  1  0     0  0
 26 29  1  0     0  0
 26 30  1  0     0  0
 27 28  1  0     0  0
 29 31  1  0     0  0
 30 32  1  0     0  0
 31 33  1  0     0  0
 32 33  1  0     0  0
M  END
> <Compound >
17

> <standard_type>
pIC50

> <# Confs.>
25

> <canonical_smiles>
O=NC(C(OCC1CCCCC1)=N2)=CN=C2NC3=CC=C(S(=O)(NCC4OCCC4)=O)C=C3

> <standard_relation>
=

> <predicted_activity_value>
7.924453038607469

> <actual_activity_value>
8.09151498112135

> <Publication ID>
Ece et al.2013

> <standard_units>
nM

> hash
6954743088815454028

$$$$
17_
XXILIB    08252103453D 0   0.00000     0.00000

 33 36  0     1  0            999 V2000
   -3.9683   -0.0649    4.4572 S   0  0  2  0  0  6           0  0  0
   -4.8269   -1.2144    4.2456 O   0  0  0  0  0  2           0  0  0
   -3.2214    0.0758    5.6927 O   0  0  0  0  0  2           0  0  0
    6.0047   -0.6373   -0.9304 O   0  0  0  0  0  2           0  0  0
    4.0386   -0.0063    2.4362 O   0  0  0  0  0  2           0  0  0
   -6.2742    3.8123    3.7469 O   0  0  0  0  0  2           0  0  0
    2.0189   -0.0000    1.2046 N   0  0  0  0  0  3           0  0  0
    2.0738   -0.0043   -1.1753 N   0  0  0  0  0  3           0  0  0
   -4.8588    1.3537    4.1705 N   0  0  0  0  0  3           0  0  0
    5.5173   -0.0526    0.0448 N   0  0  0  0  0  3           0  0  0
    0.0000    0.0000    0.0000 N   0  0  0  0  0  3           0  0  0
   -2.8045   -0.0267    3.1292 C   0  0  0  0  0  4           0  0  0
    3.3743   -0.0208    1.2208 C   0  0  0  0  0  4           0  0  0
    1.4010    0.0000    0.0000 C   0  0  0  0  0  4           0  0  0
    3.4231   -0.0228   -1.1129 C   0  0  0  0  0  4           0  0  0
    4.1417   -0.0455    0.0661 C   0  0  0  0  0  4           0  0  0
   -0.9121   -0.0000    1.0579 C   0  0  0  0  0  4           0  0  0
   -3.1093   -0.6317    1.9136 C   0  0  0  0  0  4           0  0  0
   -1.5686    0.5836    3.3316 C   0  0  0  0  0  4           0  0  0
   -2.1646   -0.6129    0.8848 C   0  0  0  0  0  4           0  0  0
   -0.6307    0.5981    2.2963 C   0  0  0  0  0  4           0  0  0
   -5.1380    3.7470    4.6298 C   0  0  2  0  0  4           0  0  0
    3.1772    0.0305    3.5736 C   0  0  0  0  0  4           0  0  0
   -7.4590    3.9793    4.5399 C   0  0  0  0  0  4           0  0  0
   -4.1774    2.6596    4.1686 C   0  0  0  0  0  4           0  0  0
    4.0109    0.0437    4.8535 C   0  0  1  0  0  4           0  0  0
   -5.7078    3.4857    6.0153 C   0  0  0  0  0  4           0  0  0
   -7.0048    4.2525    5.9572 C   0  0  0  0  0  4           0  0  0
    3.0989    0.0832    6.0870 C   0  0  0  0  0  4           0  0  0
    4.9601   -1.1644    4.9173 C   0  0  0  0  0  4           0  0  0
    3.9007    0.0594    7.3861 C   0  0  0  0  0  4           0  0  0
    5.7575   -1.1901    6.2195 C   0  0  0  0  0  4           0  0  0
    4.8472   -1.1353    7.4417 C   0  0  0  0  0  4           0  0  0
  1  2  2  0     0  0
  1  3  2  0     0  0
  1  9  1  0     0  0
  1 12  1  0     0  0
  4 10  2  0     0  0
  5 13  1  0     0  0
  5 23  1  0     0  0
  6 22  1  0     0  0
  6 24  1  0     0  0
  7 13  2  0     0  0
  7 14  1  0     0  0
  8 14  2  0     0  0
  8 15  1  0     0  0
  9 25  1  0     0  0
 10 16  1  0     0  0
 11 14  1  0     0  0
 11 17  1  0     0  0
 12 18  2  0     0  0
 12 19  1  0     0  0
 13 16  1  0     0  0
 15 16  2  0     0  0
 17 20  2  0     0  0
 17 21  1  0     0  0
 18 20  1  0     0  0
 19 21  2  0     0  0
 22 25  1  0     0  0
 22 27  1  0     0  0
 23 26  1  0     0  0
 24 28  1  0     0  0
 26 29  1  0     0  0
 26 30  1  0     0  0
 27 28  1  0     0  0
 29 31  1  0     0  0
 30 32  1  0     0  0
 31 33  1  0     0  0
 32 33  1  0     0  0
M  END
> <Compound >
17

> <standard_type>
pIC50

> <# Confs.>
25

> <canonical_smiles>
O=NC(C(OCC1CCCCC1)=N2)=CN=C2NC3=CC=C(S(=O)(NCC4OCCC4)=O)C=C3

> <standard_relation>
=

> <predicted_activity_value>
7.924453038607469

> <actual_activity_value>
8.09151498112135

> <Publication ID>
Ece et al.2013

> <standard_units>
nM

> hash
6954743088815454028

$$$$
17_
XXILIB    08252103453D 0   0.00000     0.00000

 33 36  0     1  0            999 V2000
   -3.9832   -0.0087    4.4443 S   0  0  2  0  0  6           0  0  0
   -5.1971   -0.6100    3.9264 O   0  0  0  0  0  2           0  0  0
   -3.3223   -0.5731    5.6057 O   0  0  0  0  0  2           0  0  0
    6.0047    0.6373    0.9304 O   0  0  0  0  0  2           0  0  0
    4.0386    0.0063   -2.4362 O   0  0  0  0  0  2           0  0  0
   -4.5966    4.4542    5.1933 O   0  0  0  0  0  2           0  0  0
    2.0189    0.0000   -1.2046 N   0  0  0  0  0  3           0  0  0
    2.0738    0.0043    1.1753 N   0  0  0  0  0  3           0  0  0
   -4.2491    1.6507    4.6962 N   0  0  0  0  0  3           0  0  0
    5.5173    0.0526   -0.0448 N   0  0  0  0  0  3           0  0  0
    0.0000    0.0000    0.0000 N   0  0  0  0  0  3           0  0  0
   -2.8064    0.0172    3.1275 C   0  0  0  0  0  4           0  0  0
    3.3743    0.0208   -1.2208 C   0  0  0  0  0  4           0  0  0
    1.4010   -0.0000   -0.0000 C   0  0  0  0  0  4           0  0  0
    3.4231    0.0228    1.1129 C   0  0  0  0  0  4           0  0  0
    4.1417    0.0455   -0.0661 C   0  0  0  0  0  4           0  0  0
   -0.9121   -0.0000    1.0579 C   0  0  0  0  0  4           0  0  0
   -3.2364    0.0056    1.8041 C   0  0  0  0  0  4           0  0  0
   -1.4478    0.0117    3.4357 C   0  0  0  0  0  4           0  0  0
   -2.2890    0.0000    0.7776 C   0  0  0  0  0  4           0  0  0
   -0.5079    0.0071    2.4022 C   0  0  0  0  0  4           0  0  0
   -3.6310    3.6791    5.9291 C   0  0  2  0  0  4           0  0  0
    3.1772   -0.0305   -3.5736 C   0  0  0  0  0  4           0  0  0
   -5.6796    4.7886    6.0739 C   0  0  0  0  0  4           0  0  0
   -3.1254    2.5242    5.0756 C   0  0  0  0  0  4           0  0  0
    4.0109   -0.0437   -4.8535 C   0  0  1  0  0  4           0  0  0
   -4.3477    3.2162    7.1879 C   0  0  0  0  0  4           0  0  0
   -5.2508    4.3904    7.4694 C   0  0  0  0  0  4           0  0  0
    4.9252   -1.2757   -4.8850 C   0  0  0  0  0  4           0  0  0
    3.1185    0.0036   -6.1050 C   0  0  0  0  0  4           0  0  0
    5.7466   -1.3397   -6.1704 C   0  0  0  0  0  4           0  0  0
    3.9408   -0.0659   -7.3899 C   0  0  0  0  0  4           0  0  0
    4.8586   -1.2836   -7.4093 C   0  0  0  0  0  4           0  0  0
  1  2  2  0     0  0
  1  3  2  0     0  0
  1  9  1  0     0  0
  1 12  1  0     0  0
  4 10  2  0     0  0
  5 13  1  0     0  0
  5 23  1  0     0  0
  6 22  1  0     0  0
  6 24  1  0     0  0
  7 13  2  0     0  0
  7 14  1  0     0  0
  8 14  2  0     0  0
  8 15  1  0     0  0
  9 25  1  0     0  0
 10 16  1  0     0  0
 11 14  1  0     0  0
 11 17  1  0     0  0
 12 18  2  0     0  0
 12 19  1  0     0  0
 13 16  1  0     0  0
 15 16  2  0     0  0
 17 20  2  0     0  0
 17 21  1  0     0  0
 18 20  1  0     0  0
 19 21  2  0     0  0
 22 25  1  0     0  0
 22 27  1  0     0  0
 23 26  1  0     0  0
 24 28  1  0     0  0
 26 29  1  0     0  0
 26 30  1  0     0  0
 27 28  1  0     0  0
 29 31  1  0     0  0
 30 32  1  0     0  0
 31 33  1  0     0  0
 32 33  1  0     0  0
M  END
> <Compound >
17

> <standard_type>
pIC50

> <# Confs.>
25

> <canonical_smiles>
O=NC(C(OCC1CCCCC1)=N2)=CN=C2NC3=CC=C(S(=O)(NCC4OCCC4)=O)C=C3

> <standard_relation>
=

> <predicted_activity_value>
7.924453038607469

> <actual_activity_value>
8.09151498112135

> <Publication ID>
Ece et al.2013

> <standard_units>
nM

> hash
6954743088815454028

$$$$
17_
XXILIB    08252103453D 0   0.00000     0.00000

 33 36  0     1  0            999 V2000
   -3.9683   -0.0649    4.4572 S   0  0  2  0  0  6           0  0  0
   -4.8269   -1.2144    4.2456 O   0  0  0  0  0  2           0  0  0
   -3.2214    0.0758    5.6927 O   0  0  0  0  0  2           0  0  0
    6.0047   -0.6373   -0.9304 O   0  0  0  0  0  2           0  0  0
    4.0386   -0.0063    2.4362 O   0  0  0  0  0  2           0  0  0
   -6.2742    3.8123    3.7469 O   0  0  0  0  0  2           0  0  0
    2.0189   -0.0000    1.2046 N   0  0  0  0  0  3           0  0  0
    2.0738   -0.0043   -1.1753 N   0  0  0  0  0  3           0  0  0
   -4.8588    1.3537    4.1705 N   0  0  0  0  0  3           0  0  0
    5.5173   -0.0526    0.0448 N   0  0  0  0  0  3           0  0  0
    0.0000    0.0000    0.0000 N   0  0  0  0  0  3           0  0  0
   -2.8045   -0.0267    3.1292 C   0  0  0  0  0  4           0  0  0
    3.3743   -0.0208    1.2208 C   0  0  0  0  0  4           0  0  0
    1.4010    0.0000    0.0000 C   0  0  0  0  0  4           0  0  0
    3.4231   -0.0228   -1.1129 C   0  0  0  0  0  4           0  0  0
    4.1417   -0.0455    0.0661 C   0  0  0  0  0  4           0  0  0
   -0.9121   -0.0000    1.0579 C   0  0  0  0  0  4           0  0  0
   -3.1093   -0.6317    1.9136 C   0  0  0  0  0  4           0  0  0
   -1.5686    0.5836    3.3316 C   0  0  0  0  0  4           0  0  0
   -2.1646   -0.6129    0.8848 C   0  0  0  0  0  4           0  0  0
   -0.6307    0.5981    2.2963 C   0  0  0  0  0  4           0  0  0
   -5.1380    3.7470    4.6298 C   0  0  2  0  0  4           0  0  0
    3.1772    0.0305    3.5736 C   0  0  0  0  0  4           0  0  0
   -7.4590    3.9793    4.5399 C   0  0  0  0  0  4           0  0  0
   -4.1774    2.6596    4.1686 C   0  0  0  0  0  4           0  0  0
    4.0109    0.0437    4.8535 C   0  0  1  0  0  4           0  0  0
   -5.7078    3.4857    6.0153 C   0  0  0  0  0  4           0  0  0
   -7.0048    4.2525    5.9572 C   0  0  0  0  0  4           0  0  0
    4.9252    1.2757    4.8850 C   0  0  0  0  0  4           0  0  0
    3.1185   -0.0036    6.1050 C   0  0  0  0  0  4           0  0  0
    5.7466    1.3397    6.1704 C   0  0  0  0  0  4           0  0  0
    3.9408    0.0659    7.3899 C   0  0  0  0  0  4           0  0  0
    4.8586    1.2836    7.4093 C   0  0  0  0  0  4           0  0  0
  1  2  2  0     0  0
  1  3  2  0     0  0
  1  9  1  0     0  0
  1 12  1  0     0  0
  4 10  2  0     0  0
  5 13  1  0     0  0
  5 23  1  0     0  0
  6 22  1  0     0  0
  6 24  1  0     0  0
  7 13  2  0     0  0
  7 14  1  0     0  0
  8 14  2  0     0  0
  8 15  1  0     0  0
  9 25  1  0     0  0
 10 16  1  0     0  0
 11 14  1  0     0  0
 11 17  1  0     0  0
 12 18  2  0     0  0
 12 19  1  0     0  0
 13 16  1  0     0  0
 15 16  2  0     0  0
 17 20  2  0     0  0
 17 21  1  0     0  0
 18 20  1  0     0  0
 19 21  2  0     0  0
 22 25  1  0     0  0
 22 27  1  0     0  0
 23 26  1  0     0  0
 24 28  1  0     0  0
 26 29  1  0     0  0
 26 30  1  0     0  0
 27 28  1  0     0  0
 29 31  1  0     0  0
 30 32  1  0     0  0
 31 33  1  0     0  0
 32 33  1  0     0  0
M  END
> <Compound >
17

> <standard_type>
pIC50

> <# Confs.>
25

> <canonical_smiles>
O=NC(C(OCC1CCCCC1)=N2)=CN=C2NC3=CC=C(S(=O)(NCC4OCCC4)=O)C=C3

> <standard_relation>
=

> <predicted_activity_value>
7.924453038607469

> <actual_activity_value>
8.09151498112135

> <Publication ID>
Ece et al.2013

> <standard_units>
nM

> hash
6954743088815454028

$$$$
17_
XXILIB    08252103453D 0   0.00000     0.00000

 33 36  0     1  0            999 V2000
   -3.9749    0.0498    4.4515 S   0  0  2  0  0  6           0  0  0
   -5.2888    0.1579    3.8473 O   0  0  0  0  0  2           0  0  0
   -3.6554   -1.0684    5.3185 O   0  0  0  0  0  2           0  0  0
    6.0047    0.6373    0.9304 O   0  0  0  0  0  2           0  0  0
    4.0386    0.0063   -2.4362 O   0  0  0  0  0  2           0  0  0
   -2.9008    3.9006    6.6514 O   0  0  0  0  0  2           0  0  0
    2.0189    0.0000   -1.2046 N   0  0  0  0  0  3           0  0  0
    2.0738    0.0043    1.1753 N   0  0  0  0  0  3           0  0  0
   -3.6086    1.5053    5.2484 N   0  0  0  0  0  3           0  0  0
    5.5173    0.0526   -0.0448 N   0  0  0  0  0  3           0  0  0
    0.0000    0.0000    0.0000 N   0  0  0  0  0  3           0  0  0
   -2.7914    0.0565    3.1405 C   0  0  0  0  0  4           0  0  0
    3.3743    0.0208   -1.2208 C   0  0  0  0  0  4           0  0  0
    1.4010   -0.0000   -0.0000 C   0  0  0  0  0  4           0  0  0
    3.4231    0.0228    1.1129 C   0  0  0  0  0  4           0  0  0
    4.1417    0.0455   -0.0661 C   0  0  0  0  0  4           0  0  0
   -0.9121    0.0000    1.0579 C   0  0  0  0  0  4           0  0  0
   -3.1051    0.6414    1.9173 C   0  0  0  0  0  4           0  0  0
   -1.5597   -0.5633    3.3392 C   0  0  0  0  0  4           0  0  0
   -2.1646    0.6129    0.8848 C   0  0  0  0  0  4           0  0  0
   -0.6253   -0.5858    2.3009 C   0  0  0  0  0  4           0  0  0
   -2.3516    2.6253    7.0322 C   0  0  2  0  0  4           0  0  0
    3.1772   -0.0305   -3.5736 C   0  0  0  0  0  4           0  0  0
   -2.1581    4.9354    7.3117 C   0  0  0  0  0  4           0  0  0
   -2.2656    1.7124    5.8168 C   0  0  0  0  0  4           0  0  0
    4.0109   -0.0437   -4.8535 C   0  0  1  0  0  4           0  0  0
   -0.9917    2.9251    7.6428 C   0  0  0  0  0  4           0  0  0
   -1.2385    4.2572    8.3038 C   0  0  0  0  0  4           0  0  0
    3.0989   -0.0832   -6.0870 C   0  0  0  0  0  4           0  0  0
    4.9601    1.1644   -4.9173 C   0  0  0  0  0  4           0  0  0
    3.9007   -0.0594   -7.3861 C   0  0  0  0  0  4           0  0  0
    5.7575    1.1901   -6.2195 C   0  0  0  0  0  4           0  0  0
    4.8472    1.1353   -7.4417 C   0  0  0  0  0  4           0  0  0
  1  2  2  0     0  0
  1  3  2  0     0  0
  1  9  1  0     0  0
  1 12  1  0     0  0
  4 10  2  0     0  0
  5 13  1  0     0  0
  5 23  1  0     0  0
  6 22  1  0     0  0
  6 24  1  0     0  0
  7 13  2  0     0  0
  7 14  1  0     0  0
  8 14  2  0     0  0
  8 15  1  0     0  0
  9 25  1  0     0  0
 10 16  1  0     0  0
 11 14  1  0     0  0
 11 17  1  0     0  0
 12 18  2  0     0  0
 12 19  1  0     0  0
 13 16  1  0     0  0
 15 16  2  0     0  0
 17 20  2  0     0  0
 17 21  1  0     0  0
 18 20  1  0     0  0
 19 21  2  0     0  0
 22 25  1  0     0  0
 22 27  1  0     0  0
 23 26  1  0     0  0
 24 28  1  0     0  0
 26 29  1  0     0  0
 26 30  1  0     0  0
 27 28  1  0     0  0
 29 31  1  0     0  0
 30 32  1  0     0  0
 31 33  1  0     0  0
 32 33  1  0     0  0
M  END
> <Compound >
17

> <standard_type>
pIC50

> <# Confs.>
25

> <canonical_smiles>
O=NC(C(OCC1CCCCC1)=N2)=CN=C2NC3=CC=C(S(=O)(NCC4OCCC4)=O)C=C3

> <standard_relation>
=

> <predicted_activity_value>
7.924453038607469

> <actual_activity_value>
8.09151498112135

> <Publication ID>
Ece et al.2013

> <standard_units>
nM

> hash
6954743088815454028

$$$$
17_
XXILIB    08252103453D 0   0.00000     0.00000

 33 36  0     1  0            999 V2000
   -3.9683   -0.0649    4.4572 S   0  0  2  0  0  6           0  0  0
   -4.8269   -1.2144    4.2456 O   0  0  0  0  0  2           0  0  0
   -3.2214    0.0758    5.6927 O   0  0  0  0  0  2           0  0  0
    6.0047    0.6373    0.9304 O   0  0  0  0  0  2           0  0  0
    4.0386    0.0063   -2.4362 O   0  0  0  0  0  2           0  0  0
   -6.2742    3.8123    3.7469 O   0  0  0  0  0  2           0  0  0
    2.0189    0.0000   -1.2046 N   0  0  0  0  0  3           0  0  0
    2.0738    0.0043    1.1753 N   0  0  0  0  0  3           0  0  0
   -4.8588    1.3537    4.1705 N   0  0  0  0  0  3           0  0  0
    5.5173    0.0526   -0.0448 N   0  0  0  0  0  3           0  0  0
    0.0000    0.0000    0.0000 N   0  0  0  0  0  3           0  0  0
   -2.8045   -0.0267    3.1292 C   0  0  0  0  0  4           0  0  0
    3.3743    0.0208   -1.2208 C   0  0  0  0  0  4           0  0  0
    1.4010   -0.0000   -0.0000 C   0  0  0  0  0  4           0  0  0
    3.4231    0.0228    1.1129 C   0  0  0  0  0  4           0  0  0
    4.1417    0.0455   -0.0661 C   0  0  0  0  0  4           0  0  0
   -0.9121   -0.0000    1.0579 C   0  0  0  0  0  4           0  0  0
   -3.1093   -0.6317    1.9136 C   0  0  0  0  0  4           0  0  0
   -1.5686    0.5836    3.3316 C   0  0  0  0  0  4           0  0  0
   -2.1646   -0.6129    0.8848 C   0  0  0  0  0  4           0  0  0
   -0.6307    0.5981    2.2963 C   0  0  0  0  0  4           0  0  0
   -5.1380    3.7470    4.6298 C   0  0  2  0  0  4           0  0  0
    3.1772   -0.0305   -3.5736 C   0  0  0  0  0  4           0  0  0
   -7.4590    3.9793    4.5399 C   0  0  0  0  0  4           0  0  0
   -4.1774    2.6596    4.1686 C   0  0  0  0  0  4           0  0  0
    4.0109   -0.0437   -4.8535 C   0  0  1  0  0  4           0  0  0
   -5.7078    3.4857    6.0153 C   0  0  0  0  0  4           0  0  0
   -7.0048    4.2525    5.9572 C   0  0  0  0  0  4           0  0  0
    4.8864    1.2139   -4.9360 C   0  0  0  0  0  4           0  0  0
    4.8727   -1.3137   -4.9486 C   0  0  0  0  0  4           0  0  0
    5.7617    1.2145   -6.1869 C   0  0  0  0  0  4           0  0  0
    5.7518   -1.3094   -6.1974 C   0  0  0  0  0  4           0  0  0
    6.6084   -0.0506   -6.2822 C   0  0  0  0  0  4           0  0  0
  1  2  2  0     0  0
  1  3  2  0     0  0
  1  9  1  0     0  0
  1 12  1  0     0  0
  4 10  2  0     0  0
  5 13  1  0     0  0
  5 23  1  0     0  0
  6 22  1  0     0  0
  6 24  1  0     0  0
  7 13  2  0     0  0
  7 14  1  0     0  0
  8 14  2  0     0  0
  8 15  1  0     0  0
  9 25  1  0     0  0
 10 16  1  0     0  0
 11 14  1  0     0  0
 11 17  1  0     0  0
 12 18  2  0     0  0
 12 19  1  0     0  0
 13 16  1  0     0  0
 15 16  2  0     0  0
 17 20  2  0     0  0
 17 21  1  0     0  0
 18 20  1  0     0  0
 19 21  2  0     0  0
 22 25  1  0     0  0
 22 27  1  0     0  0
 23 26  1  0     0  0
 24 28  1  0     0  0
 26 29  1  0     0  0
 26 30  1  0     0  0
 27 28  1  0     0  0
 29 31  1  0     0  0
 30 32  1  0     0  0
 31 33  1  0     0  0
 32 33  1  0     0  0
M  END
> <Compound >
17

> <standard_type>
pIC50

> <# Confs.>
25

> <canonical_smiles>
O=NC(C(OCC1CCCCC1)=N2)=CN=C2NC3=CC=C(S(=O)(NCC4OCCC4)=O)C=C3

> <standard_relation>
=

> <predicted_activity_value>
7.924453038607469

> <actual_activity_value>
8.09151498112135

> <Publication ID>
Ece et al.2013

> <standard_units>
nM

> hash
6954743088815454028

$$$$
17_
XXILIB    08252103453D 0   0.00000     0.00000

 33 36  0     1  0            999 V2000
   -3.9749    0.0498    4.4515 S   0  0  2  0  0  6           0  0  0
   -5.2888    0.1579    3.8473 O   0  0  0  0  0  2           0  0  0
   -3.6554   -1.0684    5.3185 O   0  0  0  0  0  2           0  0  0
    6.0047    0.6373    0.9304 O   0  0  0  0  0  2           0  0  0
    4.0386    0.0063   -2.4362 O   0  0  0  0  0  2           0  0  0
   -2.9008    3.9006    6.6514 O   0  0  0  0  0  2           0  0  0
    2.0189    0.0000   -1.2046 N   0  0  0  0  0  3           0  0  0
    2.0738    0.0043    1.1753 N   0  0  0  0  0  3           0  0  0
   -3.6086    1.5053    5.2484 N   0  0  0  0  0  3           0  0  0
    5.5173    0.0526   -0.0448 N   0  0  0  0  0  3           0  0  0
    0.0000    0.0000    0.0000 N   0  0  0  0  0  3           0  0  0
   -2.7914    0.0565    3.1405 C   0  0  0  0  0  4           0  0  0
    3.3743    0.0208   -1.2208 C   0  0  0  0  0  4           0  0  0
    1.4010   -0.0000   -0.0000 C   0  0  0  0  0  4           0  0  0
    3.4231    0.0228    1.1129 C   0  0  0  0  0  4           0  0  0
    4.1417    0.0455   -0.0661 C   0  0  0  0  0  4           0  0  0
   -0.9121    0.0000    1.0579 C   0  0  0  0  0  4           0  0  0
   -3.1051    0.6414    1.9173 C   0  0  0  0  0  4           0  0  0
   -1.5597   -0.5633    3.3392 C   0  0  0  0  0  4           0  0  0
   -2.1646    0.6129    0.8848 C   0  0  0  0  0  4           0  0  0
   -0.6253   -0.5858    2.3009 C   0  0  0  0  0  4           0  0  0
   -2.3516    2.6253    7.0322 C   0  0  2  0  0  4           0  0  0
    3.1772   -0.0305   -3.5736 C   0  0  0  0  0  4           0  0  0
   -2.1581    4.9354    7.3117 C   0  0  0  0  0  4           0  0  0
   -2.2656    1.7124    5.8168 C   0  0  0  0  0  4           0  0  0
    4.0109   -0.0437   -4.8535 C   0  0  1  0  0  4           0  0  0
   -0.9917    2.9251    7.6428 C   0  0  0  0  0  4           0  0  0
   -1.2385    4.2572    8.3038 C   0  0  0  0  0  4           0  0  0
    4.9252   -1.2757   -4.8850 C   0  0  0  0  0  4           0  0  0
    3.1185    0.0036   -6.1050 C   0  0  0  0  0  4           0  0  0
    5.7466   -1.3397   -6.1704 C   0  0  0  0  0  4           0  0  0
    3.9408   -0.0659   -7.3899 C   0  0  0  0  0  4           0  0  0
    4.8586   -1.2836   -7.4093 C   0  0  0  0  0  4           0  0  0
  1  2  2  0     0  0
  1  3  2  0     0  0
  1  9  1  0     0  0
  1 12  1  0     0  0
  4 10  2  0     0  0
  5 13  1  0     0  0
  5 23  1  0     0  0
  6 22  1  0     0  0
  6 24  1  0     0  0
  7 13  2  0     0  0
  7 14  1  0     0  0
  8 14  2  0     0  0
  8 15  1  0     0  0
  9 25  1  0     0  0
 10 16  1  0     0  0
 11 14  1  0     0  0
 11 17  1  0     0  0
 12 18  2  0     0  0
 12 19  1  0     0  0
 13 16  1  0     0  0
 15 16  2  0     0  0
 17 20  2  0     0  0
 17 21  1  0     0  0
 18 20  1  0     0  0
 19 21  2  0     0  0
 22 25  1  0     0  0
 22 27  1  0     0  0
 23 26  1  0     0  0
 24 28  1  0     0  0
 26 29  1  0     0  0
 26 30  1  0     0  0
 27 28  1  0     0  0
 29 31  1  0     0  0
 30 32  1  0     0  0
 31 33  1  0     0  0
 32 33  1  0     0  0
M  END
> <Compound >
17

> <standard_type>
pIC50

> <# Confs.>
25

> <canonical_smiles>
O=NC(C(OCC1CCCCC1)=N2)=CN=C2NC3=CC=C(S(=O)(NCC4OCCC4)=O)C=C3

> <standard_relation>
=

> <predicted_activity_value>
7.924453038607469

> <actual_activity_value>
8.09151498112135

> <Publication ID>
Ece et al.2013

> <standard_units>
nM

> hash
6954743088815454028

$$$$
17_
XXILIB    08252103453D 0   0.00000     0.00000

 33 36  0     1  0            999 V2000
   -3.9832   -0.0087    4.4443 S   0  0  2  0  0  6           0  0  0
   -5.1971   -0.6100    3.9264 O   0  0  0  0  0  2           0  0  0
   -3.3223   -0.5731    5.6057 O   0  0  0  0  0  2           0  0  0
    6.0047    0.6373    0.9304 O   0  0  0  0  0  2           0  0  0
    4.0386    0.0063   -2.4362 O   0  0  0  0  0  2           0  0  0
   -4.5966    4.4542    5.1933 O   0  0  0  0  0  2           0  0  0
    2.0189    0.0000   -1.2046 N   0  0  0  0  0  3           0  0  0
    2.0738    0.0043    1.1753 N   0  0  0  0  0  3           0  0  0
   -4.2491    1.6507    4.6962 N   0  0  0  0  0  3           0  0  0
    5.5173    0.0526   -0.0448 N   0  0  0  0  0  3           0  0  0
    0.0000    0.0000    0.0000 N   0  0  0  0  0  3           0  0  0
   -2.8064    0.0172    3.1275 C   0  0  0  0  0  4           0  0  0
    3.3743    0.0208   -1.2208 C   0  0  0  0  0  4           0  0  0
    1.4010   -0.0000   -0.0000 C   0  0  0  0  0  4           0  0  0
    3.4231    0.0228    1.1129 C   0  0  0  0  0  4           0  0  0
    4.1417    0.0455   -0.0661 C   0  0  0  0  0  4           0  0  0
   -0.9121   -0.0000    1.0579 C   0  0  0  0  0  4           0  0  0
   -3.2364    0.0056    1.8041 C   0  0  0  0  0  4           0  0  0
   -1.4478    0.0117    3.4357 C   0  0  0  0  0  4           0  0  0
   -2.2890    0.0000    0.7776 C   0  0  0  0  0  4           0  0  0
   -0.5079    0.0071    2.4022 C   0  0  0  0  0  4           0  0  0
   -3.6310    3.6791    5.9291 C   0  0  2  0  0  4           0  0  0
    3.1772   -0.0305   -3.5736 C   0  0  0  0  0  4           0  0  0
   -5.6796    4.7886    6.0739 C   0  0  0  0  0  4           0  0  0
   -3.1254    2.5242    5.0756 C   0  0  0  0  0  4           0  0  0
    4.0109   -0.0437   -4.8535 C   0  0  1  0  0  4           0  0  0
   -4.3477    3.2162    7.1879 C   0  0  0  0  0  4           0  0  0
   -5.2508    4.3904    7.4694 C   0  0  0  0  0  4           0  0  0
    4.8864    1.2139   -4.9360 C   0  0  0  0  0  4           0  0  0
    4.8727   -1.3137   -4.9486 C   0  0  0  0  0  4           0  0  0
    5.7617    1.2145   -6.1869 C   0  0  0  0  0  4           0  0  0
    5.7518   -1.3094   -6.1974 C   0  0  0  0  0  4           0  0  0
    6.6084   -0.0506   -6.2822 C   0  0  0  0  0  4           0  0  0
  1  2  2  0     0  0
  1  3  2  0     0  0
  1  9  1  0     0  0
  1 12  1  0     0  0
  4 10  2  0     0  0
  5 13  1  0     0  0
  5 23  1  0     0  0
  6 22  1  0     0  0
  6 24  1  0     0  0
  7 13  2  0     0  0
  7 14  1  0     0  0
  8 14  2  0     0  0
  8 15  1  0     0  0
  9 25  1  0     0  0
 10 16  1  0     0  0
 11 14  1  0     0  0
 11 17  1  0     0  0
 12 18  2  0     0  0
 12 19  1  0     0  0
 13 16  1  0     0  0
 15 16  2  0     0  0
 17 20  2  0     0  0
 17 21  1  0     0  0
 18 20  1  0     0  0
 19 21  2  0     0  0
 22 25  1  0     0  0
 22 27  1  0     0  0
 23 26  1  0     0  0
 24 28  1  0     0  0
 26 29  1  0     0  0
 26 30  1  0     0  0
 27 28  1  0     0  0
 29 31  1  0     0  0
 30 32  1  0     0  0
 31 33  1  0     0  0
 32 33  1  0     0  0
M  END
> <Compound >
17

> <standard_type>
pIC50

> <# Confs.>
25

> <canonical_smiles>
O=NC(C(OCC1CCCCC1)=N2)=CN=C2NC3=CC=C(S(=O)(NCC4OCCC4)=O)C=C3

> <standard_relation>
=

> <predicted_activity_value>
7.924453038607469

> <actual_activity_value>
8.09151498112135

> <Publication ID>
Ece et al.2013

> <standard_units>
nM

> hash
6954743088815454028

$$$$
17_
XXILIB    08252103453D 0   0.00000     0.00000

 33 36  0     1  0            999 V2000
   -3.9749    0.0498    4.4515 S   0  0  2  0  0  6           0  0  0
   -3.2392   -0.0616    5.6963 O   0  0  0  0  0  2           0  0  0
   -4.8757    1.1648    4.2284 O   0  0  0  0  0  2           0  0  0
    6.0047   -0.6373   -0.9304 O   0  0  0  0  0  2           0  0  0
    4.0386   -0.0063    2.4362 O   0  0  0  0  0  2           0  0  0
   -6.2572   -3.8098    3.5859 O   0  0  0  0  0  2           0  0  0
    2.0189   -0.0000    1.2046 N   0  0  0  0  0  3           0  0  0
    2.0738   -0.0043   -1.1753 N   0  0  0  0  0  3           0  0  0
   -4.7976   -1.4083    4.1601 N   0  0  0  0  0  3           0  0  0
    5.5173   -0.0526    0.0448 N   0  0  0  0  0  3           0  0  0
    0.0000    0.0000    0.0000 N   0  0  0  0  0  3           0  0  0
   -2.7914    0.0565    3.1405 C   0  0  0  0  0  4           0  0  0
    3.3743   -0.0208    1.2208 C   0  0  0  0  0  4           0  0  0
    1.4010    0.0000    0.0000 C   0  0  0  0  0  4           0  0  0
    3.4231   -0.0228   -1.1129 C   0  0  0  0  0  4           0  0  0
    4.1417   -0.0455    0.0661 C   0  0  0  0  0  4           0  0  0
   -0.9121   -0.0000    1.0579 C   0  0  0  0  0  4           0  0  0
   -3.1051    0.6414    1.9173 C   0  0  0  0  0  4           0  0  0
   -1.5597   -0.5633    3.3392 C   0  0  0  0  0  4           0  0  0
   -2.1646    0.6129    0.8848 C   0  0  0  0  0  4           0  0  0
   -0.6253   -0.5858    2.3009 C   0  0  0  0  0  4           0  0  0
   -6.6945   -2.5319    3.0852 C   0  0  2  0  0  4           0  0  0
    3.1772    0.0305    3.5736 C   0  0  0  0  0  4           0  0  0
   -7.1661   -4.2324    4.6134 C   0  0  0  0  0  4           0  0  0
   -5.4989   -1.6117    2.8810 C   0  0  0  0  0  4           0  0  0
    4.0109    0.0437    4.8535 C   0  0  1  0  0  4           0  0  0
   -7.6809   -2.0024    4.1143 C   0  0  0  0  0  4           0  0  0
   -8.3378   -3.2754    4.5849 C   0  0  0  0  0  4           0  0  0
    3.0989    0.0832    6.0870 C   0  0  0  0  0  4           0  0  0
    4.9601   -1.1644    4.9173 C   0  0  0  0  0  4           0  0  0
    3.9007    0.0594    7.3861 C   0  0  0  0  0  4           0  0  0
    5.7575   -1.1901    6.2195 C   0  0  0  0  0  4           0  0  0
    4.8472   -1.1353    7.4417 C   0  0  0  0  0  4           0  0  0
  1  2  2  0     0  0
  1  3  2  0     0  0
  1  9  1  0     0  0
  1 12  1  0     0  0
  4 10  2  0     0  0
  5 13  1  0     0  0
  5 23  1  0     0  0
  6 22  1  0     0  0
  6 24  1  0     0  0
  7 13  2  0     0  0
  7 14  1  0     0  0
  8 14  2  0     0  0
  8 15  1  0     0  0
  9 25  1  0     0  0
 10 16  1  0     0  0
 11 14  1  0     0  0
 11 17  1  0     0  0
 12 18  2  0     0  0
 12 19  1  0     0  0
 13 16  1  0     0  0
 15 16  2  0     0  0
 17 20  2  0     0  0
 17 21  1  0     0  0
 18 20  1  0     0  0
 19 21  2  0     0  0
 22 25  1  0     0  0
 22 27  1  0     0  0
 23 26  1  0     0  0
 24 28  1  0     0  0
 26 29  1  0     0  0
 26 30  1  0     0  0
 27 28  1  0     0  0
 29 31  1  0     0  0
 30 32  1  0     0  0
 31 33  1  0     0  0
 32 33  1  0     0  0
M  END
> <Compound >
17

> <standard_type>
pIC50

> <# Confs.>
25

> <canonical_smiles>
O=NC(C(OCC1CCCCC1)=N2)=CN=C2NC3=CC=C(S(=O)(NCC4OCCC4)=O)C=C3

> <standard_relation>
=

> <predicted_activity_value>
7.924453038607469

> <actual_activity_value>
8.09151498112135

> <Publication ID>
Ece et al.2013

> <standard_units>
nM

> hash
6954743088815454028

$$$$
17_
XXILIB    08252103453D 0   0.00000     0.00000

 33 36  0     1  0            999 V2000
   -3.9749    0.0498    4.4515 S   0  0  2  0  0  6           0  0  0
   -3.2392   -0.0616    5.6963 O   0  0  0  0  0  2           0  0  0
   -4.8757    1.1648    4.2284 O   0  0  0  0  0  2           0  0  0
    6.0047    0.6373    0.9304 O   0  0  0  0  0  2           0  0  0
    4.0386    0.0063   -2.4362 O   0  0  0  0  0  2           0  0  0
   -6.2572   -3.8098    3.5859 O   0  0  0  0  0  2           0  0  0
    2.0189    0.0000   -1.2046 N   0  0  0  0  0  3           0  0  0
    2.0738    0.0043    1.1753 N   0  0  0  0  0  3           0  0  0
   -4.7976   -1.4083    4.1601 N   0  0  0  0  0  3           0  0  0
    5.5173    0.0526   -0.0448 N   0  0  0  0  0  3           0  0  0
    0.0000    0.0000    0.0000 N   0  0  0  0  0  3           0  0  0
   -2.7914    0.0565    3.1405 C   0  0  0  0  0  4           0  0  0
    3.3743    0.0208   -1.2208 C   0  0  0  0  0  4           0  0  0
    1.4010   -0.0000   -0.0000 C   0  0  0  0  0  4           0  0  0
    3.4231    0.0228    1.1129 C   0  0  0  0  0  4           0  0  0
    4.1417    0.0455   -0.0661 C   0  0  0  0  0  4           0  0  0
   -0.9121   -0.0000    1.0579 C   0  0  0  0  0  4           0  0  0
   -3.1051    0.6414    1.9173 C   0  0  0  0  0  4           0  0  0
   -1.5597   -0.5633    3.3392 C   0  0  0  0  0  4           0  0  0
   -2.1646    0.6129    0.8848 C   0  0  0  0  0  4           0  0  0
   -0.6253   -0.5858    2.3009 C   0  0  0  0  0  4           0  0  0
   -6.6945   -2.5319    3.0852 C   0  0  2  0  0  4           0  0  0
    3.1772   -0.0305   -3.5736 C   0  0  0  0  0  4           0  0  0
   -7.1661   -4.2324    4.6134 C   0  0  0  0  0  4           0  0  0
   -5.4989   -1.6117    2.8810 C   0  0  0  0  0  4           0  0  0
    4.0109   -0.0437   -4.8535 C   0  0  1  0  0  4           0  0  0
   -7.6809   -2.0024    4.1143 C   0  0  0  0  0  4           0  0  0
   -8.3378   -3.2754    4.5849 C   0  0  0  0  0  4           0  0  0
    3.0989   -0.0832   -6.0870 C   0  0  0  0  0  4           0  0  0
    4.9601    1.1644   -4.9173 C   0  0  0  0  0  4           0  0  0
    3.9007   -0.0594   -7.3861 C   0  0  0  0  0  4           0  0  0
    5.7575    1.1901   -6.2195 C   0  0  0  0  0  4           0  0  0
    4.8472    1.1353   -7.4417 C   0  0  0  0  0  4           0  0  0
  1  2  2  0     0  0
  1  3  2  0     0  0
  1  9  1  0     0  0
  1 12  1  0     0  0
  4 10  2  0     0  0
  5 13  1  0     0  0
  5 23  1  0     0  0
  6 22  1  0     0  0
  6 24  1  0     0  0
  7 13  2  0     0  0
  7 14  1  0     0  0
  8 14  2  0     0  0
  8 15  1  0     0  0
  9 25  1  0     0  0
 10 16  1  0     0  0
 11 14  1  0     0  0
 11 17  1  0     0  0
 12 18  2  0     0  0
 12 19  1  0     0  0
 13 16  1  0     0  0
 15 16  2  0     0  0
 17 20  2  0     0  0
 17 21  1  0     0  0
 18 20  1  0     0  0
 19 21  2  0     0  0
 22 25  1  0     0  0
 22 27  1  0     0  0
 23 26  1  0     0  0
 24 28  1  0     0  0
 26 29  1  0     0  0
 26 30  1  0     0  0
 27 28  1  0     0  0
 29 31  1  0     0  0
 30 32  1  0     0  0
 31 33  1  0     0  0
 32 33  1  0     0  0
M  END
> <Compound >
17

> <standard_type>
pIC50

> <# Confs.>
25

> <canonical_smiles>
O=NC(C(OCC1CCCCC1)=N2)=CN=C2NC3=CC=C(S(=O)(NCC4OCCC4)=O)C=C3

> <standard_relation>
=

> <predicted_activity_value>
7.924453038607469

> <actual_activity_value>
8.09151498112135

> <Publication ID>
Ece et al.2013

> <standard_units>
nM

> hash
6954743088815454028

$$$$
17_
XXILIB    08252103453D 0   0.00000     0.00000

 33 36  0     1  0            999 V2000
   -3.9749    0.0498    4.4515 S   0  0  2  0  0  6           0  0  0
   -3.2392   -0.0616    5.6963 O   0  0  0  0  0  2           0  0  0
   -4.8757    1.1648    4.2284 O   0  0  0  0  0  2           0  0  0
    6.0047   -0.6373   -0.9304 O   0  0  0  0  0  2           0  0  0
    4.0386   -0.0063    2.4362 O   0  0  0  0  0  2           0  0  0
   -6.2572   -3.8098    3.5859 O   0  0  0  0  0  2           0  0  0
    2.0189   -0.0000    1.2046 N   0  0  0  0  0  3           0  0  0
    2.0738   -0.0043   -1.1753 N   0  0  0  0  0  3           0  0  0
   -4.7976   -1.4083    4.1601 N   0  0  0  0  0  3           0  0  0
    5.5173   -0.0526    0.0448 N   0  0  0  0  0  3           0  0  0
    0.0000    0.0000    0.0000 N   0  0  0  0  0  3           0  0  0
   -2.7914    0.0565    3.1405 C   0  0  0  0  0  4           0  0  0
    3.3743   -0.0208    1.2208 C   0  0  0  0  0  4           0  0  0
    1.4010    0.0000    0.0000 C   0  0  0  0  0  4           0  0  0
    3.4231   -0.0228   -1.1129 C   0  0  0  0  0  4           0  0  0
    4.1417   -0.0455    0.0661 C   0  0  0  0  0  4           0  0  0
   -0.9121   -0.0000    1.0579 C   0  0  0  0  0  4           0  0  0
   -3.1051    0.6414    1.9173 C   0  0  0  0  0  4           0  0  0
   -1.5597   -0.5633    3.3392 C   0  0  0  0  0  4           0  0  0
   -2.1646    0.6129    0.8848 C   0  0  0  0  0  4           0  0  0
   -0.6253   -0.5858    2.3009 C   0  0  0  0  0  4           0  0  0
   -6.6945   -2.5319    3.0852 C   0  0  2  0  0  4           0  0  0
    3.1772    0.0305    3.5736 C   0  0  0  0  0  4           0  0  0
   -7.1661   -4.2324    4.6134 C   0  0  0  0  0  4           0  0  0
   -5.4989   -1.6117    2.8810 C   0  0  0  0  0  4           0  0  0
    4.0109    0.0437    4.8535 C   0  0  1  0  0  4           0  0  0
   -7.6809   -2.0024    4.1143 C   0  0  0  0  0  4           0  0  0
   -8.3378   -3.2754    4.5849 C   0  0  0  0  0  4           0  0  0
    4.9252    1.2757    4.8850 C   0  0  0  0  0  4           0  0  0
    3.1185   -0.0036    6.1050 C   0  0  0  0  0  4           0  0  0
    5.7466    1.3397    6.1704 C   0  0  0  0  0  4           0  0  0
    3.9408    0.0659    7.3899 C   0  0  0  0  0  4           0  0  0
    4.8586    1.2836    7.4093 C   0  0  0  0  0  4           0  0  0
  1  2  2  0     0  0
  1  3  2  0     0  0
  1  9  1  0     0  0
  1 12  1  0     0  0
  4 10  2  0     0  0
  5 13  1  0     0  0
  5 23  1  0     0  0
  6 22  1  0     0  0
  6 24  1  0     0  0
  7 13  2  0     0  0
  7 14  1  0     0  0
  8 14  2  0     0  0
  8 15  1  0     0  0
  9 25  1  0     0  0
 10 16  1  0     0  0
 11 14  1  0     0  0
 11 17  1  0     0  0
 12 18  2  0     0  0
 12 19  1  0     0  0
 13 16  1  0     0  0
 15 16  2  0     0  0
 17 20  2  0     0  0
 17 21  1  0     0  0
 18 20  1  0     0  0
 19 21  2  0     0  0
 22 25  1  0     0  0
 22 27  1  0     0  0
 23 26  1  0     0  0
 24 28  1  0     0  0
 26 29  1  0     0  0
 26 30  1  0     0  0
 27 28  1  0     0  0
 29 31  1  0     0  0
 30 32  1  0     0  0
 31 33  1  0     0  0
 32 33  1  0     0  0
M  END
> <Compound >
17

> <standard_type>
pIC50

> <# Confs.>
25

> <canonical_smiles>
O=NC(C(OCC1CCCCC1)=N2)=CN=C2NC3=CC=C(S(=O)(NCC4OCCC4)=O)C=C3

> <standard_relation>
=

> <predicted_activity_value>
7.924453038607469

> <actual_activity_value>
8.09151498112135

> <Publication ID>
Ece et al.2013

> <standard_units>
nM

> hash
6954743088815454028

$$$$
17_
XXILIB    08252103453D 0   0.00000     0.00000

 33 36  0     1  0            999 V2000
   -3.9749    0.0498    4.4515 S   0  0  2  0  0  6           0  0  0
   -5.2888    0.1579    3.8473 O   0  0  0  0  0  2           0  0  0
   -3.6554   -1.0684    5.3185 O   0  0  0  0  0  2           0  0  0
    6.0047    0.6373    0.9304 O   0  0  0  0  0  2           0  0  0
    4.0386    0.0063   -2.4362 O   0  0  0  0  0  2           0  0  0
   -2.9008    3.9006    6.6514 O   0  0  0  0  0  2           0  0  0
    2.0189    0.0000   -1.2046 N   0  0  0  0  0  3           0  0  0
    2.0738    0.0043    1.1753 N   0  0  0  0  0  3           0  0  0
   -3.6086    1.5053    5.2484 N   0  0  0  0  0  3           0  0  0
    5.5173    0.0526   -0.0448 N   0  0  0  0  0  3           0  0  0
    0.0000    0.0000    0.0000 N   0  0  0  0  0  3           0  0  0
   -2.7914    0.0565    3.1405 C   0  0  0  0  0  4           0  0  0
    3.3743    0.0208   -1.2208 C   0  0  0  0  0  4           0  0  0
    1.4010   -0.0000   -0.0000 C   0  0  0  0  0  4           0  0  0
    3.4231    0.0228    1.1129 C   0  0  0  0  0  4           0  0  0
    4.1417    0.0455   -0.0661 C   0  0  0  0  0  4           0  0  0
   -0.9121    0.0000    1.0579 C   0  0  0  0  0  4           0  0  0
   -3.1051    0.6414    1.9173 C   0  0  0  0  0  4           0  0  0
   -1.5597   -0.5633    3.3392 C   0  0  0  0  0  4           0  0  0
   -2.1646    0.6129    0.8848 C   0  0  0  0  0  4           0  0  0
   -0.6253   -0.5858    2.3009 C   0  0  0  0  0  4           0  0  0
   -2.3516    2.6253    7.0322 C   0  0  2  0  0  4           0  0  0
    3.1772   -0.0305   -3.5736 C   0  0  0  0  0  4           0  0  0
   -2.1581    4.9354    7.3117 C   0  0  0  0  0  4           0  0  0
   -2.2656    1.7124    5.8168 C   0  0  0  0  0  4           0  0  0
    4.0109   -0.0437   -4.8535 C   0  0  1  0  0  4           0  0  0
   -0.9917    2.9251    7.6428 C   0  0  0  0  0  4           0  0  0
   -1.2385    4.2572    8.3038 C   0  0  0  0  0  4           0  0  0
    4.8864    1.2139   -4.9360 C   0  0  0  0  0  4           0  0  0
    4.8727   -1.3137   -4.9486 C   0  0  0  0  0  4           0  0  0
    5.7617    1.2145   -6.1869 C   0  0  0  0  0  4           0  0  0
    5.7518   -1.3094   -6.1974 C   0  0  0  0  0  4           0  0  0
    6.6084   -0.0506   -6.2822 C   0  0  0  0  0  4           0  0  0
  1  2  2  0     0  0
  1  3  2  0     0  0
  1  9  1  0     0  0
  1 12  1  0     0  0
  4 10  2  0     0  0
  5 13  1  0     0  0
  5 23  1  0     0  0
  6 22  1  0     0  0
  6 24  1  0     0  0
  7 13  2  0     0  0
  7 14  1  0     0  0
  8 14  2  0     0  0
  8 15  1  0     0  0
  9 25  1  0     0  0
 10 16  1  0     0  0
 11 14  1  0     0  0
 11 17  1  0     0  0
 12 18  2  0     0  0
 12 19  1  0     0  0
 13 16  1  0     0  0
 15 16  2  0     0  0
 17 20  2  0     0  0
 17 21  1  0     0  0
 18 20  1  0     0  0
 19 21  2  0     0  0
 22 25  1  0     0  0
 22 27  1  0     0  0
 23 26  1  0     0  0
 24 28  1  0     0  0
 26 29  1  0     0  0
 26 30  1  0     0  0
 27 28  1  0     0  0
 29 31  1  0     0  0
 30 32  1  0     0  0
 31 33  1  0     0  0
 32 33  1  0     0  0
M  END
> <Compound >
17

> <standard_type>
pIC50

> <# Confs.>
25

> <canonical_smiles>
O=NC(C(OCC1CCCCC1)=N2)=CN=C2NC3=CC=C(S(=O)(NCC4OCCC4)=O)C=C3

> <standard_relation>
=

> <predicted_activity_value>
7.924453038607469

> <actual_activity_value>
8.09151498112135

> <Publication ID>
Ece et al.2013

> <standard_units>
nM

> hash
6954743088815454028

$$$$
17_
XXILIB    08252103453D 0   0.00000     0.00000

 33 36  0     1  0            999 V2000
   -3.9749    0.0498    4.4515 S   0  0  2  0  0  6           0  0  0
   -3.2392   -0.0616    5.6963 O   0  0  0  0  0  2           0  0  0
   -4.8757    1.1648    4.2284 O   0  0  0  0  0  2           0  0  0
    6.0047    0.6373    0.9304 O   0  0  0  0  0  2           0  0  0
    4.0386    0.0063   -2.4362 O   0  0  0  0  0  2           0  0  0
   -6.2572   -3.8098    3.5859 O   0  0  0  0  0  2           0  0  0
    2.0189    0.0000   -1.2046 N   0  0  0  0  0  3           0  0  0
    2.0738    0.0043    1.1753 N   0  0  0  0  0  3           0  0  0
   -4.7976   -1.4083    4.1601 N   0  0  0  0  0  3           0  0  0
    5.5173    0.0526   -0.0448 N   0  0  0  0  0  3           0  0  0
    0.0000    0.0000    0.0000 N   0  0  0  0  0  3           0  0  0
   -2.7914    0.0565    3.1405 C   0  0  0  0  0  4           0  0  0
    3.3743    0.0208   -1.2208 C   0  0  0  0  0  4           0  0  0
    1.4010   -0.0000   -0.0000 C   0  0  0  0  0  4           0  0  0
    3.4231    0.0228    1.1129 C   0  0  0  0  0  4           0  0  0
    4.1417    0.0455   -0.0661 C   0  0  0  0  0  4           0  0  0
   -0.9121   -0.0000    1.0579 C   0  0  0  0  0  4           0  0  0
   -3.1051    0.6414    1.9173 C   0  0  0  0  0  4           0  0  0
   -1.5597   -0.5633    3.3392 C   0  0  0  0  0  4           0  0  0
   -2.1646    0.6129    0.8848 C   0  0  0  0  0  4           0  0  0
   -0.6253   -0.5858    2.3009 C   0  0  0  0  0  4           0  0  0
   -6.6945   -2.5319    3.0852 C   0  0  2  0  0  4           0  0  0
    3.1772   -0.0305   -3.5736 C   0  0  0  0  0  4           0  0  0
   -7.1661   -4.2324    4.6134 C   0  0  0  0  0  4           0  0  0
   -5.4989   -1.6117    2.8810 C   0  0  0  0  0  4           0  0  0
    4.0109   -0.0437   -4.8535 C   0  0  1  0  0  4           0  0  0
   -7.6809   -2.0024    4.1143 C   0  0  0  0  0  4           0  0  0
   -8.3378   -3.2754    4.5849 C   0  0  0  0  0  4           0  0  0
    4.9252   -1.2757   -4.8850 C   0  0  0  0  0  4           0  0  0
    3.1185    0.0036   -6.1050 C   0  0  0  0  0  4           0  0  0
    5.7466   -1.3397   -6.1704 C   0  0  0  0  0  4           0  0  0
    3.9408   -0.0659   -7.3899 C   0  0  0  0  0  4           0  0  0
    4.8586   -1.2836   -7.4093 C   0  0  0  0  0  4           0  0  0
  1  2  2  0     0  0
  1  3  2  0     0  0
  1  9  1  0     0  0
  1 12  1  0     0  0
  4 10  2  0     0  0
  5 13  1  0     0  0
  5 23  1  0     0  0
  6 22  1  0     0  0
  6 24  1  0     0  0
  7 13  2  0     0  0
  7 14  1  0     0  0
  8 14  2  0     0  0
  8 15  1  0     0  0
  9 25  1  0     0  0
 10 16  1  0     0  0
 11 14  1  0     0  0
 11 17  1  0     0  0
 12 18  2  0     0  0
 12 19  1  0     0  0
 13 16  1  0     0  0
 15 16  2  0     0  0
 17 20  2  0     0  0
 17 21  1  0     0  0
 18 20  1  0     0  0
 19 21  2  0     0  0
 22 25  1  0     0  0
 22 27  1  0     0  0
 23 26  1  0     0  0
 24 28  1  0     0  0
 26 29  1  0     0  0
 26 30  1  0     0  0
 27 28  1  0     0  0
 29 31  1  0     0  0
 30 32  1  0     0  0
 31 33  1  0     0  0
 32 33  1  0     0  0
M  END
> <Compound >
17

> <standard_type>
pIC50

> <# Confs.>
25

> <canonical_smiles>
O=NC(C(OCC1CCCCC1)=N2)=CN=C2NC3=CC=C(S(=O)(NCC4OCCC4)=O)C=C3

> <standard_relation>
=

> <predicted_activity_value>
7.924453038607469

> <actual_activity_value>
8.09151498112135

> <Publication ID>
Ece et al.2013

> <standard_units>
nM

> hash
6954743088815454028

$$$$
17_
XXILIB    08252103453D 0   0.00000     0.00000

 33 36  0     1  0            999 V2000
   -3.9749    0.0498    4.4515 S   0  0  2  0  0  6           0  0  0
   -5.2888    0.1579    3.8473 O   0  0  0  0  0  2           0  0  0
   -3.6554   -1.0684    5.3185 O   0  0  0  0  0  2           0  0  0
    6.0047   -0.6373   -0.9304 O   0  0  0  0  0  2           0  0  0
    4.0386   -0.0063    2.4362 O   0  0  0  0  0  2           0  0  0
   -2.9007    3.9026    6.6554 O   0  0  0  0  0  2           0  0  0
    2.0189   -0.0000    1.2046 N   0  0  0  0  0  3           0  0  0
    2.0738   -0.0043   -1.1753 N   0  0  0  0  0  3           0  0  0
   -3.6086    1.5053    5.2484 N   0  0  0  0  0  3           0  0  0
    5.5173   -0.0526    0.0448 N   0  0  0  0  0  3           0  0  0
    0.0000    0.0000    0.0000 N   0  0  0  0  0  3           0  0  0
   -2.7914    0.0565    3.1405 C   0  0  0  0  0  4           0  0  0
    3.3743   -0.0208    1.2208 C   0  0  0  0  0  4           0  0  0
    1.4010    0.0000    0.0000 C   0  0  0  0  0  4           0  0  0
    3.4231   -0.0228   -1.1129 C   0  0  0  0  0  4           0  0  0
    4.1417   -0.0455    0.0661 C   0  0  0  0  0  4           0  0  0
   -0.9121    0.0000    1.0579 C   0  0  0  0  0  4           0  0  0
   -3.1051    0.6414    1.9173 C   0  0  0  0  0  4           0  0  0
   -1.5597   -0.5633    3.3392 C   0  0  0  0  0  4           0  0  0
   -2.1646    0.6129    0.8848 C   0  0  0  0  0  4           0  0  0
   -0.6253   -0.5858    2.3009 C   0  0  0  0  0  4           0  0  0
   -2.3516    2.6253    7.0322 C   0  0  2  0  0  4           0  0  0
    3.1772    0.0305    3.5736 C   0  0  0  0  0  4           0  0  0
   -3.8323    4.3147    7.6667 C   0  0  0  0  0  4           0  0  0
   -2.2656    1.7124    5.8168 C   0  0  0  0  0  4           0  0  0
    4.0109    0.0437    4.8535 C   0  0  1  0  0  4           0  0  0
   -3.2719    2.0849    8.1154 C   0  0  0  0  0  4           0  0  0
   -3.6796    3.3519    8.8240 C   0  0  0  0  0  4           0  0  0
    4.8864   -1.2139    4.9360 C   0  0  0  0  0  4           0  0  0
    4.8727    1.3137    4.9486 C   0  0  0  0  0  4           0  0  0
    5.7617   -1.2145    6.1869 C   0  0  0  0  0  4           0  0  0
    5.7518    1.3094    6.1974 C   0  0  0  0  0  4           0  0  0
    6.6084    0.0506    6.2822 C   0  0  0  0  0  4           0  0  0
  1  2  2  0     0  0
  1  3  2  0     0  0
  1  9  1  0     0  0
  1 12  1  0     0  0
  4 10  2  0     0  0
  5 13  1  0     0  0
  5 23  1  0     0  0
  6 22  1  0     0  0
  6 24  1  0     0  0
  7 13  2  0     0  0
  7 14  1  0     0  0
  8 14  2  0     0  0
  8 15  1  0     0  0
  9 25  1  0     0  0
 10 16  1  0     0  0
 11 14  1  0     0  0
 11 17  1  0     0  0
 12 18  2  0     0  0
 12 19  1  0     0  0
 13 16  1  0     0  0
 15 16  2  0     0  0
 17 20  2  0     0  0
 17 21  1  0     0  0
 18 20  1  0     0  0
 19 21  2  0     0  0
 22 25  1  0     0  0
 22 27  1  0     0  0
 23 26  1  0     0  0
 24 28  1  0     0  0
 26 29  1  0     0  0
 26 30  1  0     0  0
 27 28  1  0     0  0
 29 31  1  0     0  0
 30 32  1  0     0  0
 31 33  1  0     0  0
 32 33  1  0     0  0
M  END
> <Compound >
17

> <standard_type>
pIC50

> <# Confs.>
25

> <canonical_smiles>
O=NC(C(OCC1CCCCC1)=N2)=CN=C2NC3=CC=C(S(=O)(NCC4OCCC4)=O)C=C3

> <standard_relation>
=

> <predicted_activity_value>
7.924453038607469

> <actual_activity_value>
8.09151498112135

> <Publication ID>
Ece et al.2013

> <standard_units>
nM

> hash
6954743088815454028

$$$$
17_
XXILIB    08252103453D 0   0.00000     0.00000

 33 36  0     1  0            999 V2000
   -3.9749    0.0498    4.4515 S   0  0  2  0  0  6           0  0  0
   -5.2888    0.1579    3.8473 O   0  0  0  0  0  2           0  0  0
   -3.6554   -1.0684    5.3185 O   0  0  0  0  0  2           0  0  0
    6.0047   -0.6373   -0.9304 O   0  0  0  0  0  2           0  0  0
    4.0386   -0.0063    2.4362 O   0  0  0  0  0  2           0  0  0
   -2.9008    3.9006    6.6514 O   0  0  0  0  0  2           0  0  0
    2.0189   -0.0000    1.2046 N   0  0  0  0  0  3           0  0  0
    2.0738   -0.0043   -1.1753 N   0  0  0  0  0  3           0  0  0
   -3.6086    1.5053    5.2484 N   0  0  0  0  0  3           0  0  0
    5.5173   -0.0526    0.0448 N   0  0  0  0  0  3           0  0  0
    0.0000    0.0000    0.0000 N   0  0  0  0  0  3           0  0  0
   -2.7914    0.0565    3.1405 C   0  0  0  0  0  4           0  0  0
    3.3743   -0.0208    1.2208 C   0  0  0  0  0  4           0  0  0
    1.4010    0.0000    0.0000 C   0  0  0  0  0  4           0  0  0
    3.4231   -0.0228   -1.1129 C   0  0  0  0  0  4           0  0  0
    4.1417   -0.0455    0.0661 C   0  0  0  0  0  4           0  0  0
   -0.9121    0.0000    1.0579 C   0  0  0  0  0  4           0  0  0
   -3.1051    0.6414    1.9173 C   0  0  0  0  0  4           0  0  0
   -1.5597   -0.5633    3.3392 C   0  0  0  0  0  4           0  0  0
   -2.1646    0.6129    0.8848 C   0  0  0  0  0  4           0  0  0
   -0.6253   -0.5858    2.3009 C   0  0  0  0  0  4           0  0  0
   -2.3516    2.6253    7.0322 C   0  0  2  0  0  4           0  0  0
    3.1772    0.0305    3.5736 C   0  0  0  0  0  4           0  0  0
   -2.1581    4.9354    7.3117 C   0  0  0  0  0  4           0  0  0
   -2.2656    1.7124    5.8168 C   0  0  0  0  0  4           0  0  0
    4.0109    0.0437    4.8535 C   0  0  1  0  0  4           0  0  0
   -0.9917    2.9251    7.6428 C   0  0  0  0  0  4           0  0  0
   -1.2385    4.2572    8.3038 C   0  0  0  0  0  4           0  0  0
    3.0989    0.0832    6.0870 C   0  0  0  0  0  4           0  0  0
    4.9601   -1.1644    4.9173 C   0  0  0  0  0  4           0  0  0
    3.9007    0.0594    7.3861 C   0  0  0  0  0  4           0  0  0
    5.7575   -1.1901    6.2195 C   0  0  0  0  0  4           0  0  0
    4.8472   -1.1353    7.4417 C   0  0  0  0  0  4           0  0  0
  1  2  2  0     0  0
  1  3  2  0     0  0
  1  9  1  0     0  0
  1 12  1  0     0  0
  4 10  2  0     0  0
  5 13  1  0     0  0
  5 23  1  0     0  0
  6 22  1  0     0  0
  6 24  1  0     0  0
  7 13  2  0     0  0
  7 14  1  0     0  0
  8 14  2  0     0  0
  8 15  1  0     0  0
  9 25  1  0     0  0
 10 16  1  0     0  0
 11 14  1  0     0  0
 11 17  1  0     0  0
 12 18  2  0     0  0
 12 19  1  0     0  0
 13 16  1  0     0  0
 15 16  2  0     0  0
 17 20  2  0     0  0
 17 21  1  0     0  0
 18 20  1  0     0  0
 19 21  2  0     0  0
 22 25  1  0     0  0
 22 27  1  0     0  0
 23 26  1  0     0  0
 24 28  1  0     0  0
 26 29  1  0     0  0
 26 30  1  0     0  0
 27 28  1  0     0  0
 29 31  1  0     0  0
 30 32  1  0     0  0
 31 33  1  0     0  0
 32 33  1  0     0  0
M  END
> <Compound >
17

> <standard_type>
pIC50

> <# Confs.>
25

> <canonical_smiles>
O=NC(C(OCC1CCCCC1)=N2)=CN=C2NC3=CC=C(S(=O)(NCC4OCCC4)=O)C=C3

> <standard_relation>
=

> <predicted_activity_value>
7.924453038607469

> <actual_activity_value>
8.09151498112135

> <Publication ID>
Ece et al.2013

> <standard_units>
nM

> hash
6954743088815454028

$$$$
17_
XXILIB    08252103453D 0   0.00000     0.00000

 33 36  0     1  0            999 V2000
   -3.9832   -0.0087    4.4443 S   0  0  2  0  0  6           0  0  0
   -3.3444    0.5799    5.6057 O   0  0  0  0  0  2           0  0  0
   -5.2222    0.5429    3.9296 O   0  0  0  0  0  2           0  0  0
    6.0047    0.6373    0.9304 O   0  0  0  0  0  2           0  0  0
    4.0386    0.0063   -2.4362 O   0  0  0  0  0  2           0  0  0
   -4.5712   -4.4981    5.0395 O   0  0  0  0  0  2           0  0  0
    2.0189    0.0000   -1.2046 N   0  0  0  0  0  3           0  0  0
    2.0738    0.0043    1.1753 N   0  0  0  0  0  3           0  0  0
   -4.1712   -1.6781    4.7002 N   0  0  0  0  0  3           0  0  0
    5.5173    0.0526   -0.0448 N   0  0  0  0  0  3           0  0  0
    0.0000    0.0000   -0.0000 N   0  0  0  0  0  3           0  0  0
   -2.8064    0.0172    3.1275 C   0  0  0  0  0  4           0  0  0
    3.3743    0.0208   -1.2208 C   0  0  0  0  0  4           0  0  0
    1.4010   -0.0000   -0.0000 C   0  0  0  0  0  4           0  0  0
    3.4231    0.0228    1.1129 C   0  0  0  0  0  4           0  0  0
    4.1417    0.0455   -0.0661 C   0  0  0  0  0  4           0  0  0
   -0.9121    0.0000    1.0579 C   0  0  0  0  0  4           0  0  0
   -3.2364    0.0056    1.8041 C   0  0  0  0  0  4           0  0  0
   -1.4478    0.0117    3.4357 C   0  0  0  0  0  4           0  0  0
   -2.2890   -0.0000    0.7776 C   0  0  0  0  0  4           0  0  0
   -0.5079    0.0071    2.4022 C   0  0  0  0  0  4           0  0  0
   -5.4256   -3.7205    4.1792 C   0  0  2  0  0  4           0  0  0
    3.1772   -0.0305   -3.5736 C   0  0  0  0  0  4           0  0  0
   -5.3183   -4.8728    6.2065 C   0  0  0  0  0  4           0  0  0
   -4.6569   -2.5376    3.6070 C   0  0  0  0  0  4           0  0  0
    4.0109   -0.0437   -4.8535 C   0  0  1  0  0  4           0  0  0
   -6.6050   -3.2995    5.0420 C   0  0  0  0  0  4           0  0  0
   -6.7605   -4.4971    5.9449 C   0  0  0  0  0  4           0  0  0
    3.0989   -0.0832   -6.0870 C   0  0  0  0  0  4           0  0  0
    4.9601    1.1644   -4.9173 C   0  0  0  0  0  4           0  0  0
    3.9007   -0.0594   -7.3861 C   0  0  0  0  0  4           0  0  0
    5.7575    1.1901   -6.2195 C   0  0  0  0  0  4           0  0  0
    4.8472    1.1353   -7.4417 C   0  0  0  0  0  4           0  0  0
  1  2  2  0     0  0
  1  3  2  0     0  0
  1  9  1  0     0  0
  1 12  1  0     0  0
  4 10  2  0     0  0
  5 13  1  0     0  0
  5 23  1  0     0  0
  6 22  1  0     0  0
  6 24  1  0     0  0
  7 13  2  0     0  0
  7 14  1  0     0  0
  8 14  2  0     0  0
  8 15  1  0     0  0
  9 25  1  0     0  0
 10 16  1  0     0  0
 11 14  1  0     0  0
 11 17  1  0     0  0
 12 18  2  0     0  0
 12 19  1  0     0  0
 13 16  1  0     0  0
 15 16  2  0     0  0
 17 20  2  0     0  0
 17 21  1  0     0  0
 18 20  1  0     0  0
 19 21  2  0     0  0
 22 25  1  0     0  0
 22 27  1  0     0  0
 23 26  1  0     0  0
 24 28  1  0     0  0
 26 29  1  0     0  0
 26 30  1  0     0  0
 27 28  1  0     0  0
 29 31  1  0     0  0
 30 32  1  0     0  0
 31 33  1  0     0  0
 32 33  1  0     0  0
M  END
> <Compound >
17

> <standard_type>
pIC50

> <# Confs.>
25

> <canonical_smiles>
O=NC(C(OCC1CCCCC1)=N2)=CN=C2NC3=CC=C(S(=O)(NCC4OCCC4)=O)C=C3

> <standard_relation>
=

> <predicted_activity_value>
7.924453038607469

> <actual_activity_value>
8.09151498112135

> <Publication ID>
Ece et al.2013

> <standard_units>
nM

> hash
6954743088815454028

$$$$
17_
XXILIB    08252103453D 0   0.00000     0.00000

 33 36  0     1  0            999 V2000
   -3.9683   -0.0649    4.4572 S   0  0  2  0  0  6           0  0  0
   -4.8269   -1.2144    4.2456 O   0  0  0  0  0  2           0  0  0
   -3.2214    0.0758    5.6927 O   0  0  0  0  0  2           0  0  0
    6.0047   -0.6373   -0.9304 O   0  0  0  0  0  2           0  0  0
    4.0386   -0.0063    2.4362 O   0  0  0  0  0  2           0  0  0
   -6.2742    3.8123    3.7469 O   0  0  0  0  0  2           0  0  0
    2.0189   -0.0000    1.2046 N   0  0  0  0  0  3           0  0  0
    2.0738   -0.0043   -1.1753 N   0  0  0  0  0  3           0  0  0
   -4.8588    1.3537    4.1705 N   0  0  0  0  0  3           0  0  0
    5.5173   -0.0526    0.0448 N   0  0  0  0  0  3           0  0  0
    0.0000    0.0000    0.0000 N   0  0  0  0  0  3           0  0  0
   -2.8045   -0.0267    3.1292 C   0  0  0  0  0  4           0  0  0
    3.3743   -0.0208    1.2208 C   0  0  0  0  0  4           0  0  0
    1.4010    0.0000    0.0000 C   0  0  0  0  0  4           0  0  0
    3.4231   -0.0228   -1.1129 C   0  0  0  0  0  4           0  0  0
    4.1417   -0.0455    0.0661 C   0  0  0  0  0  4           0  0  0
   -0.9121   -0.0000    1.0579 C   0  0  0  0  0  4           0  0  0
   -3.1093   -0.6317    1.9136 C   0  0  0  0  0  4           0  0  0
   -1.5686    0.5836    3.3316 C   0  0  0  0  0  4           0  0  0
   -2.1646   -0.6129    0.8848 C   0  0  0  0  0  4           0  0  0
   -0.6307    0.5981    2.2963 C   0  0  0  0  0  4           0  0  0
   -5.1380    3.7470    4.6298 C   0  0  2  0  0  4           0  0  0
    3.1772    0.0305    3.5736 C   0  0  0  0  0  4           0  0  0
   -7.4590    3.9793    4.5399 C   0  0  0  0  0  4           0  0  0
   -4.1774    2.6596    4.1686 C   0  0  0  0  0  4           0  0  0
    4.0109    0.0437    4.8535 C   0  0  1  0  0  4           0  0  0
   -5.7078    3.4857    6.0153 C   0  0  0  0  0  4           0  0  0
   -7.0048    4.2525    5.9572 C   0  0  0  0  0  4           0  0  0
    4.8864   -1.2139    4.9360 C   0  0  0  0  0  4           0  0  0
    4.8727    1.3137    4.9486 C   0  0  0  0  0  4           0  0  0
    5.7617   -1.2145    6.1869 C   0  0  0  0  0  4           0  0  0
    5.7518    1.3094    6.1974 C   0  0  0  0  0  4           0  0  0
    6.6084    0.0506    6.2822 C   0  0  0  0  0  4           0  0  0
  1  2  2  0     0  0
  1  3  2  0     0  0
  1  9  1  0     0  0
  1 12  1  0     0  0
  4 10  2  0     0  0
  5 13  1  0     0  0
  5 23  1  0     0  0
  6 22  1  0     0  0
  6 24  1  0     0  0
  7 13  2  0     0  0
  7 14  1  0     0  0
  8 14  2  0     0  0
  8 15  1  0     0  0
  9 25  1  0     0  0
 10 16  1  0     0  0
 11 14  1  0     0  0
 11 17  1  0     0  0
 12 18  2  0     0  0
 12 19  1  0     0  0
 13 16  1  0     0  0
 15 16  2  0     0  0
 17 20  2  0     0  0
 17 21  1  0     0  0
 18 20  1  0     0  0
 19 21  2  0     0  0
 22 25  1  0     0  0
 22 27  1  0     0  0
 23 26  1  0     0  0
 24 28  1  0     0  0
 26 29  1  0     0  0
 26 30  1  0     0  0
 27 28  1  0     0  0
 29 31  1  0     0  0
 30 32  1  0     0  0
 31 33  1  0     0  0
 32 33  1  0     0  0
M  END
> <Compound >
17

> <standard_type>
pIC50

> <# Confs.>
25

> <canonical_smiles>
O=NC(C(OCC1CCCCC1)=N2)=CN=C2NC3=CC=C(S(=O)(NCC4OCCC4)=O)C=C3

> <standard_relation>
=

> <predicted_activity_value>
7.924453038607469

> <actual_activity_value>
8.09151498112135

> <Publication ID>
Ece et al.2013

> <standard_units>
nM

> hash
6954743088815454028

$$$$
17_
XXILIB    08252103453D 0   0.00000     0.00000

 33 36  0     1  0            999 V2000
   -3.9749    0.0498    4.4515 S   0  0  2  0  0  6           0  0  0
   -5.2888    0.1579    3.8473 O   0  0  0  0  0  2           0  0  0
   -3.6554   -1.0684    5.3185 O   0  0  0  0  0  2           0  0  0
    6.0047   -0.6373   -0.9304 O   0  0  0  0  0  2           0  0  0
    4.0386   -0.0063    2.4362 O   0  0  0  0  0  2           0  0  0
   -2.9008    3.9006    6.6514 O   0  0  0  0  0  2           0  0  0
    2.0189   -0.0000    1.2046 N   0  0  0  0  0  3           0  0  0
    2.0738   -0.0043   -1.1753 N   0  0  0  0  0  3           0  0  0
   -3.6086    1.5053    5.2484 N   0  0  0  0  0  3           0  0  0
    5.5173   -0.0526    0.0448 N   0  0  0  0  0  3           0  0  0
    0.0000    0.0000    0.0000 N   0  0  0  0  0  3           0  0  0
   -2.7914    0.0565    3.1405 C   0  0  0  0  0  4           0  0  0
    3.3743   -0.0208    1.2208 C   0  0  0  0  0  4           0  0  0
    1.4010    0.0000    0.0000 C   0  0  0  0  0  4           0  0  0
    3.4231   -0.0228   -1.1129 C   0  0  0  0  0  4           0  0  0
    4.1417   -0.0455    0.0661 C   0  0  0  0  0  4           0  0  0
   -0.9121    0.0000    1.0579 C   0  0  0  0  0  4           0  0  0
   -3.1051    0.6414    1.9173 C   0  0  0  0  0  4           0  0  0
   -1.5597   -0.5633    3.3392 C   0  0  0  0  0  4           0  0  0
   -2.1646    0.6129    0.8848 C   0  0  0  0  0  4           0  0  0
   -0.6253   -0.5858    2.3009 C   0  0  0  0  0  4           0  0  0
   -2.3516    2.6253    7.0322 C   0  0  2  0  0  4           0  0  0
    3.1772    0.0305    3.5736 C   0  0  0  0  0  4           0  0  0
   -2.1581    4.9354    7.3117 C   0  0  0  0  0  4           0  0  0
   -2.2656    1.7124    5.8168 C   0  0  0  0  0  4           0  0  0
    4.0109    0.0437    4.8535 C   0  0  1  0  0  4           0  0  0
   -0.9917    2.9251    7.6428 C   0  0  0  0  0  4           0  0  0
   -1.2385    4.2572    8.3038 C   0  0  0  0  0  4           0  0  0
    4.9252    1.2757    4.8850 C   0  0  0  0  0  4           0  0  0
    3.1185   -0.0036    6.1050 C   0  0  0  0  0  4           0  0  0
    5.7466    1.3397    6.1704 C   0  0  0  0  0  4           0  0  0
    3.9408    0.0659    7.3899 C   0  0  0  0  0  4           0  0  0
    4.8586    1.2836    7.4093 C   0  0  0  0  0  4           0  0  0
  1  2  2  0     0  0
  1  3  2  0     0  0
  1  9  1  0     0  0
  1 12  1  0     0  0
  4 10  2  0     0  0
  5 13  1  0     0  0
  5 23  1  0     0  0
  6 22  1  0     0  0
  6 24  1  0     0  0
  7 13  2  0     0  0
  7 14  1  0     0  0
  8 14  2  0     0  0
  8 15  1  0     0  0
  9 25  1  0     0  0
 10 16  1  0     0  0
 11 14  1  0     0  0
 11 17  1  0     0  0
 12 18  2  0     0  0
 12 19  1  0     0  0
 13 16  1  0     0  0
 15 16  2  0     0  0
 17 20  2  0     0  0
 17 21  1  0     0  0
 18 20  1  0     0  0
 19 21  2  0     0  0
 22 25  1  0     0  0
 22 27  1  0     0  0
 23 26  1  0     0  0
 24 28  1  0     0  0
 26 29  1  0     0  0
 26 30  1  0     0  0
 27 28  1  0     0  0
 29 31  1  0     0  0
 30 32  1  0     0  0
 31 33  1  0     0  0
 32 33  1  0     0  0
M  END
> <Compound >
17

> <standard_type>
pIC50

> <# Confs.>
25

> <canonical_smiles>
O=NC(C(OCC1CCCCC1)=N2)=CN=C2NC3=CC=C(S(=O)(NCC4OCCC4)=O)C=C3

> <standard_relation>
=

> <predicted_activity_value>
7.924453038607469

> <actual_activity_value>
8.09151498112135

> <Publication ID>
Ece et al.2013

> <standard_units>
nM

> hash
6954743088815454028

$$$$
26_
XXILIB    08252103453D 0   0.00000     0.00000

 24 26  0     1  0            999 V2000
    0.9372   -1.3734    5.9302 Br  0  0  0  0  0  1           0  0  0
   -0.5333   -0.5681   -3.3128 O   0  0  0  0  0  2           0  0  0
    1.3871    0.0000    0.0000 O   0  0  0  0  0  2           0  0  0
   -0.6614   -0.0000    1.1844 N   0  0  0  0  0  3           0  0  0
   -2.7237    0.0024    0.0022 N   0  0  0  0  0  3           0  0  0
    0.0727    0.0099   -2.4017 N   0  0  0  0  0  3           0  0  0
   -2.7384   -0.0026    2.3534 N   0  0  0  0  0  3           0  0  0
   -0.6980   -0.5694    5.4189 C   0  0  0  0  0  4           0  0  0
    0.0000    0.0000    0.0000 C   0  0  0  0  0  4           0  0  0
   -2.0155   -0.0004    1.1530 C   0  0  0  0  0  4           0  0  0
   -2.0236    0.0047   -1.1546 C   0  0  0  0  0  4           0  0  0
   -0.6405   -0.0023   -1.2306 C   0  0  0  0  0  4           0  0  0
   -2.3026   -0.0047    3.6806 C   0  0  0  0  0  4           0  0  0
   -1.0929   -0.5968    4.0777 C   0  0  0  0  0  4           0  0  0
   -1.4942    0.0445    6.3830 C   0  0  0  0  0  4           0  0  0
   -3.0973    0.6087    4.6632 C   0  0  0  0  0  4           0  0  0
   -2.6964    0.6342    6.0014 C   0  0  0  0  0  4           0  0  0
    1.9729    0.0000    1.3016 C   0  0  0  0  0  4           0  0  0
    3.4918    0.0000    1.1566 C   0  0  2  0  0  4           0  0  0
    3.9821   -1.2404    0.3904 C   0  0  0  0  0  4           0  0  0
    4.1629    0.0859    2.5343 C   0  0  0  0  0  4           0  0  0
    5.5055   -1.2768    0.2888 C   0  0  0  0  0  4           0  0  0
    5.6854    0.0493    2.4256 C   0  0  0  0  0  4           0  0  0
    6.1658   -1.1792    1.6601 C   0  0  0  0  0  4           0  0  0
  1  8  1  0     0  0
  2  6  2  0     0  0
  3  9  1  0     0  0
  3 18  1  0     0  0
  4  9  2  0     0  0
  4 10  1  0     0  0
  5 10  2  0     0  0
  5 11  1  0     0  0
  6 12  1  0     0  0
  7 10  1  0     0  0
  7 13  1  0     0  0
  8 14  1  0     0  0
  8 15  2  0     0  0
  9 12  1  0     0  0
 11 12  2  0     0  0
 13 14  2  0     0  0
 13 16  1  0     0  0
 15 17  1  0     0  0
 16 17  2  0     0  0
 18 19  1  0     0  0
 19 20  1  0     0  0
 19 21  1  0     0  0
 20 22  1  0     0  0
 21 23  1  0     0  0
 22 24  1  0     0  0
 23 24  1  0     0  0
M  END
> <Compound >
26

> <standard_type>
pIC50

> <# Confs.>
25

> <canonical_smiles>
O=NC(C(OCC1CCCCC1)=N2)=CN=C2NC3=CC(Br)=CC=C3

> <standard_relation>
=

> <predicted_activity_value>
5.808940418172602

> <actual_activity_value>
6.301029995663981

> <Publication ID>
nan

> <standard_units>
nM

> hash
16136956853741500436

$$$$
26_
XXILIB    08252103453D 0   0.00000     0.00000

 24 26  0     1  0            999 V2000
    0.9318    1.3666    5.9363 Br  0  0  0  0  0  1           0  0  0
   -0.5333   -0.5681   -3.3128 O   0  0  0  0  0  2           0  0  0
    1.3871    0.0000    0.0000 O   0  0  0  0  0  2           0  0  0
   -0.6614   -0.0000    1.1844 N   0  0  0  0  0  3           0  0  0
   -2.7237    0.0024    0.0022 N   0  0  0  0  0  3           0  0  0
    0.0727    0.0099   -2.4017 N   0  0  0  0  0  3           0  0  0
   -2.7384   -0.0026    2.3534 N   0  0  0  0  0  3           0  0  0
   -0.7022    0.5620    5.4221 C   0  0  0  0  0  4           0  0  0
    0.0000    0.0000    0.0000 C   0  0  0  0  0  4           0  0  0
   -2.0155   -0.0004    1.1530 C   0  0  0  0  0  4           0  0  0
   -2.0236    0.0047   -1.1546 C   0  0  0  0  0  4           0  0  0
   -0.6405   -0.0023   -1.2306 C   0  0  0  0  0  4           0  0  0
   -2.3026   -0.0047    3.6806 C   0  0  0  0  0  4           0  0  0
   -1.0933    0.5868    4.0797 C   0  0  0  0  0  4           0  0  0
   -1.5027   -0.0470    6.3856 C   0  0  0  0  0  4           0  0  0
   -3.0992   -0.6178    4.6619 C   0  0  0  0  0  4           0  0  0
   -2.7037   -0.6377    6.0018 C   0  0  0  0  0  4           0  0  0
    1.9729    0.0000    1.3016 C   0  0  0  0  0  4           0  0  0
    3.4918    0.0000    1.1566 C   0  0  2  0  0  4           0  0  0
    3.9821   -1.2404    0.3904 C   0  0  0  0  0  4           0  0  0
    4.1629    0.0859    2.5343 C   0  0  0  0  0  4           0  0  0
    5.5055   -1.2768    0.2888 C   0  0  0  0  0  4           0  0  0
    5.6854    0.0493    2.4256 C   0  0  0  0  0  4           0  0  0
    6.1658   -1.1792    1.6601 C   0  0  0  0  0  4           0  0  0
  1  8  1  0     0  0
  2  6  2  0     0  0
  3  9  1  0     0  0
  3 18  1  0     0  0
  4  9  2  0     0  0
  4 10  1  0     0  0
  5 10  2  0     0  0
  5 11  1  0     0  0
  6 12  1  0     0  0
  7 10  1  0     0  0
  7 13  1  0     0  0
  8 14  1  0     0  0
  8 15  2  0     0  0
  9 12  1  0     0  0
 11 12  2  0     0  0
 13 14  2  0     0  0
 13 16  1  0     0  0
 15 17  1  0     0  0
 16 17  2  0     0  0
 18 19  1  0     0  0
 19 20  1  0     0  0
 19 21  1  0     0  0
 20 22  1  0     0  0
 21 23  1  0     0  0
 22 24  1  0     0  0
 23 24  1  0     0  0
M  END
> <Compound >
26

> <standard_type>
pIC50

> <# Confs.>
25

> <canonical_smiles>
O=NC(C(OCC1CCCCC1)=N2)=CN=C2NC3=CC(Br)=CC=C3

> <standard_relation>
=

> <predicted_activity_value>
5.808940418172602

> <actual_activity_value>
6.301029995663981

> <Publication ID>
nan

> <standard_units>
nM

> hash
16136956853741500436

$$$$
26_
XXILIB    08252103453D 0   0.00000     0.00000

 24 26  0     1  0            999 V2000
    0.9372   -1.3734    5.9302 Br  0  0  0  0  0  1           0  0  0
   -0.5333   -0.5681   -3.3128 O   0  0  0  0  0  2           0  0  0
    1.3871    0.0000    0.0000 O   0  0  0  0  0  2           0  0  0
   -0.6614   -0.0000    1.1844 N   0  0  0  0  0  3           0  0  0
   -2.7237    0.0024    0.0022 N   0  0  0  0  0  3           0  0  0
    0.0727    0.0099   -2.4017 N   0  0  0  0  0  3           0  0  0
   -2.7384   -0.0026    2.3534 N   0  0  0  0  0  3           0  0  0
   -0.6980   -0.5694    5.4189 C   0  0  0  0  0  4           0  0  0
    0.0000    0.0000    0.0000 C   0  0  0  0  0  4           0  0  0
   -2.0155   -0.0004    1.1530 C   0  0  0  0  0  4           0  0  0
   -2.0236    0.0047   -1.1546 C   0  0  0  0  0  4           0  0  0
   -0.6405   -0.0023   -1.2306 C   0  0  0  0  0  4           0  0  0
   -2.3026   -0.0047    3.6806 C   0  0  0  0  0  4           0  0  0
   -1.0929   -0.5968    4.0777 C   0  0  0  0  0  4           0  0  0
   -1.4942    0.0445    6.3830 C   0  0  0  0  0  4           0  0  0
   -3.0973    0.6087    4.6632 C   0  0  0  0  0  4           0  0  0
   -2.6964    0.6342    6.0014 C   0  0  0  0  0  4           0  0  0
    1.9729    0.0000    1.3016 C   0  0  0  0  0  4           0  0  0
    3.4918    0.0000    1.1566 C   0  0  2  0  0  4           0  0  0
    4.1863    0.0000    2.5290 C   0  0  0  0  0  4           0  0  0
    3.9512    1.2000    0.3171 C   0  0  0  0  0  4           0  0  0
    5.7065    0.0560    2.3936 C   0  0  0  0  0  4           0  0  0
    5.4714    1.2500    0.1854 C   0  0  0  0  0  4           0  0  0
    6.1552    1.2439    1.5487 C   0  0  0  0  0  4           0  0  0
  1  8  1  0     0  0
  2  6  2  0     0  0
  3  9  1  0     0  0
  3 18  1  0     0  0
  4  9  2  0     0  0
  4 10  1  0     0  0
  5 10  2  0     0  0
  5 11  1  0     0  0
  6 12  1  0     0  0
  7 10  1  0     0  0
  7 13  1  0     0  0
  8 14  1  0     0  0
  8 15  2  0     0  0
  9 12  1  0     0  0
 11 12  2  0     0  0
 13 14  2  0     0  0
 13 16  1  0     0  0
 15 17  1  0     0  0
 16 17  2  0     0  0
 18 19  1  0     0  0
 19 20  1  0     0  0
 19 21  1  0     0  0
 20 22  1  0     0  0
 21 23  1  0     0  0
 22 24  1  0     0  0
 23 24  1  0     0  0
M  END
> <Compound >
26

> <standard_type>
pIC50

> <# Confs.>
25

> <canonical_smiles>
O=NC(C(OCC1CCCCC1)=N2)=CN=C2NC3=CC(Br)=CC=C3

> <standard_relation>
=

> <predicted_activity_value>
5.808940418172602

> <actual_activity_value>
6.301029995663981

> <Publication ID>
nan

> <standard_units>
nM

> hash
16136956853741500436

$$$$
26_
XXILIB    08252103453D 0   0.00000     0.00000

 24 26  0     1  0            999 V2000
    0.9318    1.3666    5.9363 Br  0  0  0  0  0  1           0  0  0
   -0.5333   -0.5681   -3.3128 O   0  0  0  0  0  2           0  0  0
    1.3871    0.0000    0.0000 O   0  0  0  0  0  2           0  0  0
   -0.6614   -0.0000    1.1844 N   0  0  0  0  0  3           0  0  0
   -2.7237    0.0024    0.0022 N   0  0  0  0  0  3           0  0  0
    0.0727    0.0099   -2.4017 N   0  0  0  0  0  3           0  0  0
   -2.7384   -0.0026    2.3534 N   0  0  0  0  0  3           0  0  0
   -0.7022    0.5620    5.4221 C   0  0  0  0  0  4           0  0  0
    0.0000    0.0000    0.0000 C   0  0  0  0  0  4           0  0  0
   -2.0155   -0.0004    1.1530 C   0  0  0  0  0  4           0  0  0
   -2.0236    0.0047   -1.1546 C   0  0  0  0  0  4           0  0  0
   -0.6405   -0.0023   -1.2306 C   0  0  0  0  0  4           0  0  0
   -2.3026   -0.0047    3.6806 C   0  0  0  0  0  4           0  0  0
   -1.0933    0.5868    4.0797 C   0  0  0  0  0  4           0  0  0
   -1.5027   -0.0470    6.3856 C   0  0  0  0  0  4           0  0  0
   -3.0992   -0.6178    4.6619 C   0  0  0  0  0  4           0  0  0
   -2.7037   -0.6377    6.0018 C   0  0  0  0  0  4           0  0  0
    1.9729    0.0000    1.3016 C   0  0  0  0  0  4           0  0  0
    3.4918    0.0000    1.1566 C   0  0  2  0  0  4           0  0  0
    4.1863    0.0000    2.5290 C   0  0  0  0  0  4           0  0  0
    3.9512    1.2000    0.3171 C   0  0  0  0  0  4           0  0  0
    5.7065    0.0560    2.3936 C   0  0  0  0  0  4           0  0  0
    5.4714    1.2500    0.1854 C   0  0  0  0  0  4           0  0  0
    6.1552    1.2439    1.5487 C   0  0  0  0  0  4           0  0  0
  1  8  1  0     0  0
  2  6  2  0     0  0
  3  9  1  0     0  0
  3 18  1  0     0  0
  4  9  2  0     0  0
  4 10  1  0     0  0
  5 10  2  0     0  0
  5 11  1  0     0  0
  6 12  1  0     0  0
  7 10  1  0     0  0
  7 13  1  0     0  0
  8 14  1  0     0  0
  8 15  2  0     0  0
  9 12  1  0     0  0
 11 12  2  0     0  0
 13 14  2  0     0  0
 13 16  1  0     0  0
 15 17  1  0     0  0
 16 17  2  0     0  0
 18 19  1  0     0  0
 19 20  1  0     0  0
 19 21  1  0     0  0
 20 22  1  0     0  0
 21 23  1  0     0  0
 22 24  1  0     0  0
 23 24  1  0     0  0
M  END
> <Compound >
26

> <standard_type>
pIC50

> <# Confs.>
25

> <canonical_smiles>
O=NC(C(OCC1CCCCC1)=N2)=CN=C2NC3=CC(Br)=CC=C3

> <standard_relation>
=

> <predicted_activity_value>
5.808940418172602

> <actual_activity_value>
6.301029995663981

> <Publication ID>
nan

> <standard_units>
nM

> hash
16136956853741500436

$$$$
26_
XXILIB    08252103453D 0   0.00000     0.00000

 24 26  0     1  0            999 V2000
    0.9372   -1.3734    5.9302 Br  0  0  0  0  0  1           0  0  0
   -0.5333   -0.5681   -3.3128 O   0  0  0  0  0  2           0  0  0
    1.3871    0.0000    0.0000 O   0  0  0  0  0  2           0  0  0
   -0.6614   -0.0000    1.1844 N   0  0  0  0  0  3           0  0  0
   -2.7237    0.0024    0.0022 N   0  0  0  0  0  3           0  0  0
    0.0727    0.0099   -2.4017 N   0  0  0  0  0  3           0  0  0
   -2.7384   -0.0026    2.3534 N   0  0  0  0  0  3           0  0  0
   -0.6980   -0.5694    5.4189 C   0  0  0  0  0  4           0  0  0
    0.0000    0.0000    0.0000 C   0  0  0  0  0  4           0  0  0
   -2.0155   -0.0004    1.1530 C   0  0  0  0  0  4           0  0  0
   -2.0236    0.0047   -1.1546 C   0  0  0  0  0  4           0  0  0
   -0.6405   -0.0023   -1.2306 C   0  0  0  0  0  4           0  0  0
   -2.3026   -0.0047    3.6806 C   0  0  0  0  0  4           0  0  0
   -1.0929   -0.5968    4.0777 C   0  0  0  0  0  4           0  0  0
   -1.4942    0.0445    6.3830 C   0  0  0  0  0  4           0  0  0
   -3.0973    0.6087    4.6632 C   0  0  0  0  0  4           0  0  0
   -2.6964    0.6342    6.0014 C   0  0  0  0  0  4           0  0  0
    1.9729    0.0000    1.3016 C   0  0  0  0  0  4           0  0  0
    3.4918    0.0000    1.1566 C   0  0  2  0  0  4           0  0  0
    3.9821    1.2404    0.3904 C   0  0  0  0  0  4           0  0  0
    3.9653   -1.2859    0.4652 C   0  0  0  0  0  4           0  0  0
    5.4963    1.2207    0.1922 C   0  0  0  0  0  4           0  0  0
    5.4796   -1.2993    0.2704 C   0  0  0  0  0  4           0  0  0
    5.9610   -0.0646   -0.4846 C   0  0  0  0  0  4           0  0  0
  1  8  1  0     0  0
  2  6  2  0     0  0
  3  9  1  0     0  0
  3 18  1  0     0  0
  4  9  2  0     0  0
  4 10  1  0     0  0
  5 10  2  0     0  0
  5 11  1  0     0  0
  6 12  1  0     0  0
  7 10  1  0     0  0
  7 13  1  0     0  0
  8 14  1  0     0  0
  8 15  2  0     0  0
  9 12  1  0     0  0
 11 12  2  0     0  0
 13 14  2  0     0  0
 13 16  1  0     0  0
 15 17  1  0     0  0
 16 17  2  0     0  0
 18 19  1  0     0  0
 19 20  1  0     0  0
 19 21  1  0     0  0
 20 22  1  0     0  0
 21 23  1  0     0  0
 22 24  1  0     0  0
 23 24  1  0     0  0
M  END
> <Compound >
26

> <standard_type>
pIC50

> <# Confs.>
25

> <canonical_smiles>
O=NC(C(OCC1CCCCC1)=N2)=CN=C2NC3=CC(Br)=CC=C3

> <standard_relation>
=

> <predicted_activity_value>
5.808940418172602

> <actual_activity_value>
6.301029995663981

> <Publication ID>
nan

> <standard_units>
nM

> hash
16136956853741500436

$$$$
26_
XXILIB    08252103453D 0   0.00000     0.00000

 24 26  0     1  0            999 V2000
    0.9318    1.3666    5.9363 Br  0  0  0  0  0  1           0  0  0
   -0.5333   -0.5681   -3.3128 O   0  0  0  0  0  2           0  0  0
    1.3871    0.0000    0.0000 O   0  0  0  0  0  2           0  0  0
   -0.6614   -0.0000    1.1844 N   0  0  0  0  0  3           0  0  0
   -2.7237    0.0024    0.0022 N   0  0  0  0  0  3           0  0  0
    0.0727    0.0099   -2.4017 N   0  0  0  0  0  3           0  0  0
   -2.7384   -0.0026    2.3534 N   0  0  0  0  0  3           0  0  0
   -0.7022    0.5620    5.4221 C   0  0  0  0  0  4           0  0  0
    0.0000    0.0000    0.0000 C   0  0  0  0  0  4           0  0  0
   -2.0155   -0.0004    1.1530 C   0  0  0  0  0  4           0  0  0
   -2.0236    0.0047   -1.1546 C   0  0  0  0  0  4           0  0  0
   -0.6405   -0.0023   -1.2306 C   0  0  0  0  0  4           0  0  0
   -2.3026   -0.0047    3.6806 C   0  0  0  0  0  4           0  0  0
   -1.0933    0.5868    4.0797 C   0  0  0  0  0  4           0  0  0
   -1.5027   -0.0470    6.3856 C   0  0  0  0  0  4           0  0  0
   -3.0992   -0.6178    4.6619 C   0  0  0  0  0  4           0  0  0
   -2.7037   -0.6377    6.0018 C   0  0  0  0  0  4           0  0  0
    1.9729    0.0000    1.3016 C   0  0  0  0  0  4           0  0  0
    3.4918    0.0000    1.1566 C   0  0  2  0  0  4           0  0  0
    3.9821    1.2404    0.3904 C   0  0  0  0  0  4           0  0  0
    3.9653   -1.2859    0.4652 C   0  0  0  0  0  4           0  0  0
    5.4963    1.2207    0.1922 C   0  0  0  0  0  4           0  0  0
    5.4796   -1.2993    0.2704 C   0  0  0  0  0  4           0  0  0
    5.9610   -0.0646   -0.4846 C   0  0  0  0  0  4           0  0  0
  1  8  1  0     0  0
  2  6  2  0     0  0
  3  9  1  0     0  0
  3 18  1  0     0  0
  4  9  2  0     0  0
  4 10  1  0     0  0
  5 10  2  0     0  0
  5 11  1  0     0  0
  6 12  1  0     0  0
  7 10  1  0     0  0
  7 13  1  0     0  0
  8 14  1  0     0  0
  8 15  2  0     0  0
  9 12  1  0     0  0
 11 12  2  0     0  0
 13 14  2  0     0  0
 13 16  1  0     0  0
 15 17  1  0     0  0
 16 17  2  0     0  0
 18 19  1  0     0  0
 19 20  1  0     0  0
 19 21  1  0     0  0
 20 22  1  0     0  0
 21 23  1  0     0  0
 22 24  1  0     0  0
 23 24  1  0     0  0
M  END
> <Compound >
26

> <standard_type>
pIC50

> <# Confs.>
25

> <canonical_smiles>
O=NC(C(OCC1CCCCC1)=N2)=CN=C2NC3=CC(Br)=CC=C3

> <standard_relation>
=

> <predicted_activity_value>
5.808940418172602

> <actual_activity_value>
6.301029995663981

> <Publication ID>
nan

> <standard_units>
nM

> hash
16136956853741500436

$$$$
26_
XXILIB    08252103453D 0   0.00000     0.00000

 24 26  0     1  0            999 V2000
    0.9318    1.3666    5.9363 Br  0  0  0  0  0  1           0  0  0
   -0.5333   -0.5681   -3.3128 O   0  0  0  0  0  2           0  0  0
    1.3871    0.0000    0.0000 O   0  0  0  0  0  2           0  0  0
   -0.6614   -0.0000    1.1844 N   0  0  0  0  0  3           0  0  0
   -2.7237    0.0024    0.0022 N   0  0  0  0  0  3           0  0  0
    0.0727    0.0099   -2.4017 N   0  0  0  0  0  3           0  0  0
   -2.7384   -0.0026    2.3534 N   0  0  0  0  0  3           0  0  0
   -0.7022    0.5620    5.4221 C   0  0  0  0  0  4           0  0  0
    0.0000    0.0000    0.0000 C   0  0  0  0  0  4           0  0  0
   -2.0155   -0.0004    1.1530 C   0  0  0  0  0  4           0  0  0
   -2.0236    0.0047   -1.1546 C   0  0  0  0  0  4           0  0  0
   -0.6405   -0.0023   -1.2306 C   0  0  0  0  0  4           0  0  0
   -2.3026   -0.0047    3.6806 C   0  0  0  0  0  4           0  0  0
   -1.0933    0.5868    4.0797 C   0  0  0  0  0  4           0  0  0
   -1.5027   -0.0470    6.3856 C   0  0  0  0  0  4           0  0  0
   -3.0992   -0.6178    4.6619 C   0  0  0  0  0  4           0  0  0
   -2.7037   -0.6377    6.0018 C   0  0  0  0  0  4           0  0  0
    1.9729    0.0000    1.3016 C   0  0  0  0  0  4           0  0  0
    3.4918    0.0000    1.1566 C   0  0  2  0  0  4           0  0  0
    4.0100   -1.2319    0.3926 C   0  0  0  0  0  4           0  0  0
    4.1852    0.1155    2.5224 C   0  0  0  0  0  4           0  0  0
    3.9306   -2.5192    1.2123 C   0  0  0  0  0  4           0  0  0
    4.1007   -1.1699    3.3436 C   0  0  0  0  0  4           0  0  0
    4.6275   -2.3691    2.5613 C   0  0  0  0  0  4           0  0  0
  1  8  1  0     0  0
  2  6  2  0     0  0
  3  9  1  0     0  0
  3 18  1  0     0  0
  4  9  2  0     0  0
  4 10  1  0     0  0
  5 10  2  0     0  0
  5 11  1  0     0  0
  6 12  1  0     0  0
  7 10  1  0     0  0
  7 13  1  0     0  0
  8 14  1  0     0  0
  8 15  2  0     0  0
  9 12  1  0     0  0
 11 12  2  0     0  0
 13 14  2  0     0  0
 13 16  1  0     0  0
 15 17  1  0     0  0
 16 17  2  0     0  0
 18 19  1  0     0  0
 19 20  1  0     0  0
 19 21  1  0     0  0
 20 22  1  0     0  0
 21 23  1  0     0  0
 22 24  1  0     0  0
 23 24  1  0     0  0
M  END
> <Compound >
26

> <standard_type>
pIC50

> <# Confs.>
25

> <canonical_smiles>
O=NC(C(OCC1CCCCC1)=N2)=CN=C2NC3=CC(Br)=CC=C3

> <standard_relation>
=

> <predicted_activity_value>
5.808940418172602

> <actual_activity_value>
6.301029995663981

> <Publication ID>
nan

> <standard_units>
nM

> hash
16136956853741500436

$$$$
26_
XXILIB    08252103453D 0   0.00000     0.00000

 24 26  0     1  0            999 V2000
    0.9372   -1.3734    5.9302 Br  0  0  0  0  0  1           0  0  0
   -0.5333   -0.5681   -3.3128 O   0  0  0  0  0  2           0  0  0
    1.3871    0.0000    0.0000 O   0  0  0  0  0  2           0  0  0
   -0.6614   -0.0000    1.1844 N   0  0  0  0  0  3           0  0  0
   -2.7237    0.0024    0.0022 N   0  0  0  0  0  3           0  0  0
    0.0727    0.0099   -2.4017 N   0  0  0  0  0  3           0  0  0
   -2.7384   -0.0026    2.3534 N   0  0  0  0  0  3           0  0  0
   -0.6980   -0.5694    5.4189 C   0  0  0  0  0  4           0  0  0
    0.0000    0.0000    0.0000 C   0  0  0  0  0  4           0  0  0
   -2.0155   -0.0004    1.1530 C   0  0  0  0  0  4           0  0  0
   -2.0236    0.0047   -1.1546 C   0  0  0  0  0  4           0  0  0
   -0.6405   -0.0023   -1.2306 C   0  0  0  0  0  4           0  0  0
   -2.3026   -0.0047    3.6806 C   0  0  0  0  0  4           0  0  0
   -1.0929   -0.5968    4.0777 C   0  0  0  0  0  4           0  0  0
   -1.4942    0.0445    6.3830 C   0  0  0  0  0  4           0  0  0
   -3.0973    0.6087    4.6632 C   0  0  0  0  0  4           0  0  0
   -2.6964    0.6342    6.0014 C   0  0  0  0  0  4           0  0  0
    1.9729    0.0000    1.3016 C   0  0  0  0  0  4           0  0  0
    3.4918    0.0000    1.1566 C   0  0  2  0  0  4           0  0  0
    4.0100   -1.2319    0.3926 C   0  0  0  0  0  4           0  0  0
    4.1852    0.1155    2.5224 C   0  0  0  0  0  4           0  0  0
    3.9306   -2.5192    1.2123 C   0  0  0  0  0  4           0  0  0
    4.1007   -1.1699    3.3436 C   0  0  0  0  0  4           0  0  0
    4.6275   -2.3691    2.5613 C   0  0  0  0  0  4           0  0  0
  1  8  1  0     0  0
  2  6  2  0     0  0
  3  9  1  0     0  0
  3 18  1  0     0  0
  4  9  2  0     0  0
  4 10  1  0     0  0
  5 10  2  0     0  0
  5 11  1  0     0  0
  6 12  1  0     0  0
  7 10  1  0     0  0
  7 13  1  0     0  0
  8 14  1  0     0  0
  8 15  2  0     0  0
  9 12  1  0     0  0
 11 12  2  0     0  0
 13 14  2  0     0  0
 13 16  1  0     0  0
 15 17  1  0     0  0
 16 17  2  0     0  0
 18 19  1  0     0  0
 19 20  1  0     0  0
 19 21  1  0     0  0
 20 22  1  0     0  0
 21 23  1  0     0  0
 22 24  1  0     0  0
 23 24  1  0     0  0
M  END
> <Compound >
26

> <standard_type>
pIC50

> <# Confs.>
25

> <canonical_smiles>
O=NC(C(OCC1CCCCC1)=N2)=CN=C2NC3=CC(Br)=CC=C3

> <standard_relation>
=

> <predicted_activity_value>
5.808940418172602

> <actual_activity_value>
6.301029995663981

> <Publication ID>
nan

> <standard_units>
nM

> hash
16136956853741500436

$$$$
26_
XXILIB    08252103453D 0   0.00000     0.00000

 24 26  0     1  0            999 V2000
    0.9372   -1.3734    5.9302 Br  0  0  0  0  0  1           0  0  0
   -0.5333   -0.5681   -3.3128 O   0  0  0  0  0  2           0  0  0
    1.3871    0.0000    0.0000 O   0  0  0  0  0  2           0  0  0
   -0.6614   -0.0000    1.1844 N   0  0  0  0  0  3           0  0  0
   -2.7237    0.0024    0.0022 N   0  0  0  0  0  3           0  0  0
    0.0727    0.0099   -2.4017 N   0  0  0  0  0  3           0  0  0
   -2.7384   -0.0026    2.3534 N   0  0  0  0  0  3           0  0  0
   -0.6980   -0.5694    5.4189 C   0  0  0  0  0  4           0  0  0
    0.0000    0.0000    0.0000 C   0  0  0  0  0  4           0  0  0
   -2.0155   -0.0004    1.1530 C   0  0  0  0  0  4           0  0  0
   -2.0236    0.0047   -1.1546 C   0  0  0  0  0  4           0  0  0
   -0.6405   -0.0023   -1.2306 C   0  0  0  0  0  4           0  0  0
   -2.3026   -0.0047    3.6806 C   0  0  0  0  0  4           0  0  0
   -1.0929   -0.5968    4.0777 C   0  0  0  0  0  4           0  0  0
   -1.4942    0.0445    6.3830 C   0  0  0  0  0  4           0  0  0
   -3.0973    0.6087    4.6632 C   0  0  0  0  0  4           0  0  0
   -2.6964    0.6342    6.0014 C   0  0  0  0  0  4           0  0  0
    1.9729    0.0000    1.3016 C   0  0  0  0  0  4           0  0  0
    3.4918    0.0000    1.1566 C   0  0  2  0  0  4           0  0  0
    4.2128   -0.0000    2.5167 C   0  0  0  0  0  4           0  0  0
    3.9724    1.1769    0.2942 C   0  0  0  0  0  4           0  0  0
    4.1241    1.3438    3.2390 C   0  0  0  0  0  4           0  0  0
    3.8784    2.5205    1.0149 C   0  0  0  0  0  4           0  0  0
    4.6078    2.4890    2.3544 C   0  0  0  0  0  4           0  0  0
  1  8  1  0     0  0
  2  6  2  0     0  0
  3  9  1  0     0  0
  3 18  1  0     0  0
  4  9  2  0     0  0
  4 10  1  0     0  0
  5 10  2  0     0  0
  5 11  1  0     0  0
  6 12  1  0     0  0
  7 10  1  0     0  0
  7 13  1  0     0  0
  8 14  1  0     0  0
  8 15  2  0     0  0
  9 12  1  0     0  0
 11 12  2  0     0  0
 13 14  2  0     0  0
 13 16  1  0     0  0
 15 17  1  0     0  0
 16 17  2  0     0  0
 18 19  1  0     0  0
 19 20  1  0     0  0
 19 21  1  0     0  0
 20 22  1  0     0  0
 21 23  1  0     0  0
 22 24  1  0     0  0
 23 24  1  0     0  0
M  END
> <Compound >
26

> <standard_type>
pIC50

> <# Confs.>
25

> <canonical_smiles>
O=NC(C(OCC1CCCCC1)=N2)=CN=C2NC3=CC(Br)=CC=C3

> <standard_relation>
=

> <predicted_activity_value>
5.808940418172602

> <actual_activity_value>
6.301029995663981

> <Publication ID>
nan

> <standard_units>
nM

> hash
16136956853741500436

$$$$
26_
XXILIB    08252103453D 0   0.00000     0.00000

 24 26  0     1  0            999 V2000
    0.9318    1.3666    5.9363 Br  0  0  0  0  0  1           0  0  0
   -0.5333   -0.5681   -3.3128 O   0  0  0  0  0  2           0  0  0
    1.3871    0.0000    0.0000 O   0  0  0  0  0  2           0  0  0
   -0.6614   -0.0000    1.1844 N   0  0  0  0  0  3           0  0  0
   -2.7237    0.0024    0.0022 N   0  0  0  0  0  3           0  0  0
    0.0727    0.0099   -2.4017 N   0  0  0  0  0  3           0  0  0
   -2.7384   -0.0026    2.3534 N   0  0  0  0  0  3           0  0  0
   -0.7022    0.5620    5.4221 C   0  0  0  0  0  4           0  0  0
    0.0000    0.0000    0.0000 C   0  0  0  0  0  4           0  0  0
   -2.0155   -0.0004    1.1530 C   0  0  0  0  0  4           0  0  0
   -2.0236    0.0047   -1.1546 C   0  0  0  0  0  4           0  0  0
   -0.6405   -0.0023   -1.2306 C   0  0  0  0  0  4           0  0  0
   -2.3026   -0.0047    3.6806 C   0  0  0  0  0  4           0  0  0
   -1.0933    0.5868    4.0797 C   0  0  0  0  0  4           0  0  0
   -1.5027   -0.0470    6.3856 C   0  0  0  0  0  4           0  0  0
   -3.0992   -0.6178    4.6619 C   0  0  0  0  0  4           0  0  0
   -2.7037   -0.6377    6.0018 C   0  0  0  0  0  4           0  0  0
    1.9729    0.0000    1.3016 C   0  0  0  0  0  4           0  0  0
    3.4918    0.0000    1.1566 C   0  0  2  0  0  4           0  0  0
    4.2128   -0.0000    2.5167 C   0  0  0  0  0  4           0  0  0
    3.9724    1.1769    0.2942 C   0  0  0  0  0  4           0  0  0
    4.1241    1.3438    3.2390 C   0  0  0  0  0  4           0  0  0
    3.8784    2.5205    1.0149 C   0  0  0  0  0  4           0  0  0
    4.6078    2.4890    2.3544 C   0  0  0  0  0  4           0  0  0
  1  8  1  0     0  0
  2  6  2  0     0  0
  3  9  1  0     0  0
  3 18  1  0     0  0
  4  9  2  0     0  0
  4 10  1  0     0  0
  5 10  2  0     0  0
  5 11  1  0     0  0
  6 12  1  0     0  0
  7 10  1  0     0  0
  7 13  1  0     0  0
  8 14  1  0     0  0
  8 15  2  0     0  0
  9 12  1  0     0  0
 11 12  2  0     0  0
 13 14  2  0     0  0
 13 16  1  0     0  0
 15 17  1  0     0  0
 16 17  2  0     0  0
 18 19  1  0     0  0
 19 20  1  0     0  0
 19 21  1  0     0  0
 20 22  1  0     0  0
 21 23  1  0     0  0
 22 24  1  0     0  0
 23 24  1  0     0  0
M  END
> <Compound >
26

> <standard_type>
pIC50

> <# Confs.>
25

> <canonical_smiles>
O=NC(C(OCC1CCCCC1)=N2)=CN=C2NC3=CC(Br)=CC=C3

> <standard_relation>
=

> <predicted_activity_value>
5.808940418172602

> <actual_activity_value>
6.301029995663981

> <Publication ID>
nan

> <standard_units>
nM

> hash
16136956853741500436

$$$$
26_
XXILIB    08252103453D 0   0.00000     0.00000

 24 26  0     1  0            999 V2000
   -3.5773    1.3544    7.4167 Br  0  0  0  0  0  1           0  0  0
   -0.5333   -0.5681   -3.3128 O   0  0  0  0  0  2           0  0  0
    1.3871    0.0000    0.0000 O   0  0  0  0  0  2           0  0  0
   -0.6614   -0.0000    1.1844 N   0  0  0  0  0  3           0  0  0
   -2.7237    0.0024    0.0022 N   0  0  0  0  0  3           0  0  0
    0.0727    0.0099   -2.4017 N   0  0  0  0  0  3           0  0  0
   -2.7384   -0.0026    2.3534 N   0  0  0  0  0  3           0  0  0
   -2.5642    0.5534    6.0334 C   0  0  0  0  0  4           0  0  0
    0.0000    0.0000    0.0000 C   0  0  0  0  0  4           0  0  0
   -2.0155   -0.0004    1.1530 C   0  0  0  0  0  4           0  0  0
   -2.0236    0.0047   -1.1546 C   0  0  0  0  0  4           0  0  0
   -0.6405   -0.0023   -1.2306 C   0  0  0  0  0  4           0  0  0
   -2.3026   -0.0047    3.6806 C   0  0  0  0  0  4           0  0  0
   -3.0411    0.5851    4.7191 C   0  0  0  0  0  4           0  0  0
   -1.3521   -0.0625    6.3362 C   0  0  0  0  0  4           0  0  0
   -1.0808   -0.6202    3.9992 C   0  0  0  0  0  4           0  0  0
   -0.6105   -0.6500    5.3146 C   0  0  0  0  0  4           0  0  0
    1.9729    0.0000    1.3016 C   0  0  0  0  0  4           0  0  0
    3.4918    0.0000    1.1566 C   0  0  2  0  0  4           0  0  0
    3.9821   -1.2404    0.3904 C   0  0  0  0  0  4           0  0  0
    4.1629    0.0859    2.5343 C   0  0  0  0  0  4           0  0  0
    5.5055   -1.2768    0.2888 C   0  0  0  0  0  4           0  0  0
    5.6854    0.0493    2.4256 C   0  0  0  0  0  4           0  0  0
    6.1658   -1.1792    1.6601 C   0  0  0  0  0  4           0  0  0
  1  8  1  0     0  0
  2  6  2  0     0  0
  3  9  1  0     0  0
  3 18  1  0     0  0
  4  9  2  0     0  0
  4 10  1  0     0  0
  5 10  2  0     0  0
  5 11  1  0     0  0
  6 12  1  0     0  0
  7 10  1  0     0  0
  7 13  1  0     0  0
  8 14  1  0     0  0
  8 15  2  0     0  0
  9 12  1  0     0  0
 11 12  2  0     0  0
 13 14  2  0     0  0
 13 16  1  0     0  0
 15 17  1  0     0  0
 16 17  2  0     0  0
 18 19  1  0     0  0
 19 20  1  0     0  0
 19 21  1  0     0  0
 20 22  1  0     0  0
 21 23  1  0     0  0
 22 24  1  0     0  0
 23 24  1  0     0  0
M  END
> <Compound >
26

> <standard_type>
pIC50

> <# Confs.>
25

> <canonical_smiles>
O=NC(C(OCC1CCCCC1)=N2)=CN=C2NC3=CC(Br)=CC=C3

> <standard_relation>
=

> <predicted_activity_value>
5.808940418172602

> <actual_activity_value>
6.301029995663981

> <Publication ID>
nan

> <standard_units>
nM

> hash
16136956853741500436

$$$$
26_
XXILIB    08252103453D 0   0.00000     0.00000

 24 26  0     1  0            999 V2000
   -3.5719   -1.3856    7.4106 Br  0  0  0  0  0  1           0  0  0
   -0.5333   -0.5681   -3.3128 O   0  0  0  0  0  2           0  0  0
    1.3871    0.0000    0.0000 O   0  0  0  0  0  2           0  0  0
   -0.6614   -0.0000    1.1844 N   0  0  0  0  0  3           0  0  0
   -2.7237    0.0024    0.0022 N   0  0  0  0  0  3           0  0  0
    0.0727    0.0099   -2.4017 N   0  0  0  0  0  3           0  0  0
   -2.7384   -0.0026    2.3534 N   0  0  0  0  0  3           0  0  0
   -2.5600   -0.5780    6.0302 C   0  0  0  0  0  4           0  0  0
    0.0000    0.0000    0.0000 C   0  0  0  0  0  4           0  0  0
   -2.0155   -0.0004    1.1530 C   0  0  0  0  0  4           0  0  0
   -2.0236    0.0047   -1.1546 C   0  0  0  0  0  4           0  0  0
   -0.6405   -0.0023   -1.2306 C   0  0  0  0  0  4           0  0  0
   -2.3026   -0.0047    3.6806 C   0  0  0  0  0  4           0  0  0
   -3.0407   -0.5985    4.7171 C   0  0  0  0  0  4           0  0  0
   -1.3436    0.0290    6.3335 C   0  0  0  0  0  4           0  0  0
   -1.0789    0.6063    4.0006 C   0  0  0  0  0  4           0  0  0
   -0.6032    0.6220    5.3142 C   0  0  0  0  0  4           0  0  0
    1.9729    0.0000    1.3016 C   0  0  0  0  0  4           0  0  0
    3.4918    0.0000    1.1566 C   0  0  2  0  0  4           0  0  0
    3.9821   -1.2404    0.3904 C   0  0  0  0  0  4           0  0  0
    4.1629    0.0859    2.5343 C   0  0  0  0  0  4           0  0  0
    5.5055   -1.2768    0.2888 C   0  0  0  0  0  4           0  0  0
    5.6854    0.0493    2.4256 C   0  0  0  0  0  4           0  0  0
    6.1658   -1.1792    1.6601 C   0  0  0  0  0  4           0  0  0
  1  8  1  0     0  0
  2  6  2  0     0  0
  3  9  1  0     0  0
  3 18  1  0     0  0
  4  9  2  0     0  0
  4 10  1  0     0  0
  5 10  2  0     0  0
  5 11  1  0     0  0
  6 12  1  0     0  0
  7 10  1  0     0  0
  7 13  1  0     0  0
  8 14  1  0     0  0
  8 15  2  0     0  0
  9 12  1  0     0  0
 11 12  2  0     0  0
 13 14  2  0     0  0
 13 16  1  0     0  0
 15 17  1  0     0  0
 16 17  2  0     0  0
 18 19  1  0     0  0
 19 20  1  0     0  0
 19 21  1  0     0  0
 20 22  1  0     0  0
 21 23  1  0     0  0
 22 24  1  0     0  0
 23 24  1  0     0  0
M  END
> <Compound >
26

> <standard_type>
pIC50

> <# Confs.>
25

> <canonical_smiles>
O=NC(C(OCC1CCCCC1)=N2)=CN=C2NC3=CC(Br)=CC=C3

> <standard_relation>
=

> <predicted_activity_value>
5.808940418172602

> <actual_activity_value>
6.301029995663981

> <Publication ID>
nan

> <standard_units>
nM

> hash
16136956853741500436

$$$$
26_
XXILIB    08252103453D 0   0.00000     0.00000

 24 26  0     1  0            999 V2000
    0.9372   -1.3734    5.9302 Br  0  0  0  0  0  1           0  0  0
   -0.5458    0.5815   -3.3084 O   0  0  0  0  0  2           0  0  0
    1.3871   -0.0000    0.0000 O   0  0  0  0  0  2           0  0  0
   -0.6614   -0.0000    1.1844 N   0  0  0  0  0  3           0  0  0
   -2.7237    0.0024    0.0022 N   0  0  0  0  0  3           0  0  0
    0.0727    0.0099   -2.4017 N   0  0  0  0  0  3           0  0  0
   -2.7384   -0.0026    2.3534 N   0  0  0  0  0  3           0  0  0
   -0.6980   -0.5694    5.4189 C   0  0  0  0  0  4           0  0  0
    0.0000    0.0000    0.0000 C   0  0  0  0  0  4           0  0  0
   -2.0155   -0.0004    1.1530 C   0  0  0  0  0  4           0  0  0
   -2.0236    0.0047   -1.1546 C   0  0  0  0  0  4           0  0  0
   -0.6405   -0.0023   -1.2306 C   0  0  0  0  0  4           0  0  0
   -2.3026   -0.0047    3.6806 C   0  0  0  0  0  4           0  0  0
   -1.0929   -0.5968    4.0777 C   0  0  0  0  0  4           0  0  0
   -1.4942    0.0445    6.3830 C   0  0  0  0  0  4           0  0  0
   -3.0973    0.6087    4.6632 C   0  0  0  0  0  4           0  0  0
   -2.6964    0.6342    6.0014 C   0  0  0  0  0  4           0  0  0
    1.9729   -0.6508    1.1272 C   0  0  0  0  0  4           0  0  0
    3.3153   -1.2436    0.7092 C   0  0  2  0  0  4           0  0  0
    3.1470   -2.2687   -0.4251 C   0  0  0  0  0  4           0  0  0
    4.0199   -1.8807    1.9149 C   0  0  0  0  0  4           0  0  0
    4.4790   -2.9079   -0.8120 C   0  0  0  0  0  4           0  0  0
    5.3506   -2.5174    1.5214 C   0  0  0  0  0  4           0  0  0
    5.1790   -3.5285    0.3925 C   0  0  0  0  0  4           0  0  0
  1  8  1  0     0  0
  2  6  2  0     0  0
  3  9  1  0     0  0
  3 18  1  0     0  0
  4  9  2  0     0  0
  4 10  1  0     0  0
  5 10  2  0     0  0
  5 11  1  0     0  0
  6 12  1  0     0  0
  7 10  1  0     0  0
  7 13  1  0     0  0
  8 14  1  0     0  0
  8 15  2  0     0  0
  9 12  1  0     0  0
 11 12  2  0     0  0
 13 14  2  0     0  0
 13 16  1  0     0  0
 15 17  1  0     0  0
 16 17  2  0     0  0
 18 19  1  0     0  0
 19 20  1  0     0  0
 19 21  1  0     0  0
 20 22  1  0     0  0
 21 23  1  0     0  0
 22 24  1  0     0  0
 23 24  1  0     0  0
M  END
> <Compound >
26

> <standard_type>
pIC50

> <# Confs.>
25

> <canonical_smiles>
O=NC(C(OCC1CCCCC1)=N2)=CN=C2NC3=CC(Br)=CC=C3

> <standard_relation>
=

> <predicted_activity_value>
5.808940418172602

> <actual_activity_value>
6.301029995663981

> <Publication ID>
nan

> <standard_units>
nM

> hash
16136956853741500436

$$$$
26_
XXILIB    08252103453D 0   0.00000     0.00000

 24 26  0     1  0            999 V2000
    0.9318    1.3666    5.9363 Br  0  0  0  0  0  1           0  0  0
   -0.5458    0.5815   -3.3084 O   0  0  0  0  0  2           0  0  0
    1.3871   -0.0000    0.0000 O   0  0  0  0  0  2           0  0  0
   -0.6614   -0.0000    1.1844 N   0  0  0  0  0  3           0  0  0
   -2.7237    0.0024    0.0022 N   0  0  0  0  0  3           0  0  0
    0.0727    0.0099   -2.4017 N   0  0  0  0  0  3           0  0  0
   -2.7384   -0.0026    2.3534 N   0  0  0  0  0  3           0  0  0
   -0.7022    0.5620    5.4221 C   0  0  0  0  0  4           0  0  0
    0.0000    0.0000    0.0000 C   0  0  0  0  0  4           0  0  0
   -2.0155   -0.0004    1.1530 C   0  0  0  0  0  4           0  0  0
   -2.0236    0.0047   -1.1546 C   0  0  0  0  0  4           0  0  0
   -0.6405   -0.0023   -1.2306 C   0  0  0  0  0  4           0  0  0
   -2.3026   -0.0047    3.6806 C   0  0  0  0  0  4           0  0  0
   -1.0933    0.5868    4.0797 C   0  0  0  0  0  4           0  0  0
   -1.5027   -0.0470    6.3856 C   0  0  0  0  0  4           0  0  0
   -3.0992   -0.6178    4.6619 C   0  0  0  0  0  4           0  0  0
   -2.7037   -0.6377    6.0018 C   0  0  0  0  0  4           0  0  0
    1.9729   -0.6508    1.1272 C   0  0  0  0  0  4           0  0  0
    3.3153   -1.2436    0.7092 C   0  0  2  0  0  4           0  0  0
    3.1470   -2.2687   -0.4251 C   0  0  0  0  0  4           0  0  0
    4.0199   -1.8807    1.9149 C   0  0  0  0  0  4           0  0  0
    4.4790   -2.9079   -0.8120 C   0  0  0  0  0  4           0  0  0
    5.3506   -2.5174    1.5214 C   0  0  0  0  0  4           0  0  0
    5.1790   -3.5285    0.3925 C   0  0  0  0  0  4           0  0  0
  1  8  1  0     0  0
  2  6  2  0     0  0
  3  9  1  0     0  0
  3 18  1  0     0  0
  4  9  2  0     0  0
  4 10  1  0     0  0
  5 10  2  0     0  0
  5 11  1  0     0  0
  6 12  1  0     0  0
  7 10  1  0     0  0
  7 13  1  0     0  0
  8 14  1  0     0  0
  8 15  2  0     0  0
  9 12  1  0     0  0
 11 12  2  0     0  0
 13 14  2  0     0  0
 13 16  1  0     0  0
 15 17  1  0     0  0
 16 17  2  0     0  0
 18 19  1  0     0  0
 19 20  1  0     0  0
 19 21  1  0     0  0
 20 22  1  0     0  0
 21 23  1  0     0  0
 22 24  1  0     0  0
 23 24  1  0     0  0
M  END
> <Compound >
26

> <standard_type>
pIC50

> <# Confs.>
25

> <canonical_smiles>
O=NC(C(OCC1CCCCC1)=N2)=CN=C2NC3=CC(Br)=CC=C3

> <standard_relation>
=

> <predicted_activity_value>
5.808940418172602

> <actual_activity_value>
6.301029995663981

> <Publication ID>
nan

> <standard_units>
nM

> hash
16136956853741500436

$$$$
26_
XXILIB    08252103453D 0   0.00000     0.00000

 24 26  0     1  0            999 V2000
   -3.5773    1.3544    7.4167 Br  0  0  0  0  0  1           0  0  0
   -0.5333   -0.5681   -3.3128 O   0  0  0  0  0  2           0  0  0
    1.3871    0.0000    0.0000 O   0  0  0  0  0  2           0  0  0
   -0.6614   -0.0000    1.1844 N   0  0  0  0  0  3           0  0  0
   -2.7237    0.0024    0.0022 N   0  0  0  0  0  3           0  0  0
    0.0727    0.0099   -2.4017 N   0  0  0  0  0  3           0  0  0
   -2.7384   -0.0026    2.3534 N   0  0  0  0  0  3           0  0  0
   -2.5642    0.5534    6.0334 C   0  0  0  0  0  4           0  0  0
    0.0000    0.0000    0.0000 C   0  0  0  0  0  4           0  0  0
   -2.0155   -0.0004    1.1530 C   0  0  0  0  0  4           0  0  0
   -2.0236    0.0047   -1.1546 C   0  0  0  0  0  4           0  0  0
   -0.6405   -0.0023   -1.2306 C   0  0  0  0  0  4           0  0  0
   -2.3026   -0.0047    3.6806 C   0  0  0  0  0  4           0  0  0
   -3.0411    0.5851    4.7191 C   0  0  0  0  0  4           0  0  0
   -1.3521   -0.0625    6.3362 C   0  0  0  0  0  4           0  0  0
   -1.0808   -0.6202    3.9992 C   0  0  0  0  0  4           0  0  0
   -0.6105   -0.6500    5.3146 C   0  0  0  0  0  4           0  0  0
    1.9729    0.0000    1.3016 C   0  0  0  0  0  4           0  0  0
    3.4918    0.0000    1.1566 C   0  0  2  0  0  4           0  0  0
    4.1863    0.0000    2.5290 C   0  0  0  0  0  4           0  0  0
    3.9512    1.2000    0.3171 C   0  0  0  0  0  4           0  0  0
    5.7065    0.0560    2.3936 C   0  0  0  0  0  4           0  0  0
    5.4714    1.2500    0.1854 C   0  0  0  0  0  4           0  0  0
    6.1552    1.2439    1.5487 C   0  0  0  0  0  4           0  0  0
  1  8  1  0     0  0
  2  6  2  0     0  0
  3  9  1  0     0  0
  3 18  1  0     0  0
  4  9  2  0     0  0
  4 10  1  0     0  0
  5 10  2  0     0  0
  5 11  1  0     0  0
  6 12  1  0     0  0
  7 10  1  0     0  0
  7 13  1  0     0  0
  8 14  1  0     0  0
  8 15  2  0     0  0
  9 12  1  0     0  0
 11 12  2  0     0  0
 13 14  2  0     0  0
 13 16  1  0     0  0
 15 17  1  0     0  0
 16 17  2  0     0  0
 18 19  1  0     0  0
 19 20  1  0     0  0
 19 21  1  0     0  0
 20 22  1  0     0  0
 21 23  1  0     0  0
 22 24  1  0     0  0
 23 24  1  0     0  0
M  END
> <Compound >
26

> <standard_type>
pIC50

> <# Confs.>
25

> <canonical_smiles>
O=NC(C(OCC1CCCCC1)=N2)=CN=C2NC3=CC(Br)=CC=C3

> <standard_relation>
=

> <predicted_activity_value>
5.808940418172602

> <actual_activity_value>
6.301029995663981

> <Publication ID>
nan

> <standard_units>
nM

> hash
16136956853741500436

$$$$
26_
XXILIB    08252103453D 0   0.00000     0.00000

 24 26  0     1  0            999 V2000
    0.9372   -1.3734    5.9302 Br  0  0  0  0  0  1           0  0  0
   -0.5458    0.5815   -3.3084 O   0  0  0  0  0  2           0  0  0
    1.3871   -0.0000   -0.0000 O   0  0  0  0  0  2           0  0  0
   -0.6614   -0.0000    1.1844 N   0  0  0  0  0  3           0  0  0
   -2.7237    0.0024    0.0022 N   0  0  0  0  0  3           0  0  0
    0.0727    0.0099   -2.4017 N   0  0  0  0  0  3           0  0  0
   -2.7384   -0.0026    2.3534 N   0  0  0  0  0  3           0  0  0
   -0.6980   -0.5694    5.4189 C   0  0  0  0  0  4           0  0  0
    0.0000    0.0000    0.0000 C   0  0  0  0  0  4           0  0  0
   -2.0155   -0.0004    1.1530 C   0  0  0  0  0  4           0  0  0
   -2.0236    0.0047   -1.1546 C   0  0  0  0  0  4           0  0  0
   -0.6405   -0.0023   -1.2306 C   0  0  0  0  0  4           0  0  0
   -2.3026   -0.0047    3.6806 C   0  0  0  0  0  4           0  0  0
   -1.0929   -0.5968    4.0777 C   0  0  0  0  0  4           0  0  0
   -1.4942    0.0445    6.3830 C   0  0  0  0  0  4           0  0  0
   -3.0973    0.6087    4.6632 C   0  0  0  0  0  4           0  0  0
   -2.6964    0.6342    6.0014 C   0  0  0  0  0  4           0  0  0
    1.9729    0.6508    1.1272 C   0  0  0  0  0  4           0  0  0
    3.3153    1.2436    0.7092 C   0  0  2  0  0  4           0  0  0
    4.0013    1.9621    1.8836 C   0  0  0  0  0  4           0  0  0
    3.1342    2.1985   -0.4787 C   0  0  0  0  0  4           0  0  0
    5.3197    2.6061    1.4602 C   0  0  0  0  0  4           0  0  0
    4.4557    2.8386   -0.8970 C   0  0  0  0  0  4           0  0  0
    5.1344    3.5445    0.2722 C   0  0  0  0  0  4           0  0  0
  1  8  1  0     0  0
  2  6  2  0     0  0
  3  9  1  0     0  0
  3 18  1  0     0  0
  4  9  2  0     0  0
  4 10  1  0     0  0
  5 10  2  0     0  0
  5 11  1  0     0  0
  6 12  1  0     0  0
  7 10  1  0     0  0
  7 13  1  0     0  0
  8 14  1  0     0  0
  8 15  2  0     0  0
  9 12  1  0     0  0
 11 12  2  0     0  0
 13 14  2  0     0  0
 13 16  1  0     0  0
 15 17  1  0     0  0
 16 17  2  0     0  0
 18 19  1  0     0  0
 19 20  1  0     0  0
 19 21  1  0     0  0
 20 22  1  0     0  0
 21 23  1  0     0  0
 22 24  1  0     0  0
 23 24  1  0     0  0
M  END
> <Compound >
26

> <standard_type>
pIC50

> <# Confs.>
25

> <canonical_smiles>
O=NC(C(OCC1CCCCC1)=N2)=CN=C2NC3=CC(Br)=CC=C3

> <standard_relation>
=

> <predicted_activity_value>
5.808940418172602

> <actual_activity_value>
6.301029995663981

> <Publication ID>
nan

> <standard_units>
nM

> hash
16136956853741500436

$$$$
26_
XXILIB    08252103453D 0   0.00000     0.00000

 24 26  0     1  0            999 V2000
   -3.5719   -1.3856    7.4106 Br  0  0  0  0  0  1           0  0  0
   -0.5333   -0.5681   -3.3128 O   0  0  0  0  0  2           0  0  0
    1.3871    0.0000    0.0000 O   0  0  0  0  0  2           0  0  0
   -0.6614   -0.0000    1.1844 N   0  0  0  0  0  3           0  0  0
   -2.7237    0.0024    0.0022 N   0  0  0  0  0  3           0  0  0
    0.0727    0.0099   -2.4017 N   0  0  0  0  0  3           0  0  0
   -2.7384   -0.0026    2.3534 N   0  0  0  0  0  3           0  0  0
   -2.5600   -0.5780    6.0302 C   0  0  0  0  0  4           0  0  0
    0.0000    0.0000    0.0000 C   0  0  0  0  0  4           0  0  0
   -2.0155   -0.0004    1.1530 C   0  0  0  0  0  4           0  0  0
   -2.0236    0.0047   -1.1546 C   0  0  0  0  0  4           0  0  0
   -0.6405   -0.0023   -1.2306 C   0  0  0  0  0  4           0  0  0
   -2.3026   -0.0047    3.6806 C   0  0  0  0  0  4           0  0  0
   -3.0407   -0.5985    4.7171 C   0  0  0  0  0  4           0  0  0
   -1.3436    0.0290    6.3335 C   0  0  0  0  0  4           0  0  0
   -1.0789    0.6063    4.0006 C   0  0  0  0  0  4           0  0  0
   -0.6032    0.6220    5.3142 C   0  0  0  0  0  4           0  0  0
    1.9729    0.0000    1.3016 C   0  0  0  0  0  4           0  0  0
    3.4918    0.0000    1.1566 C   0  0  2  0  0  4           0  0  0
    4.1863    0.0000    2.5290 C   0  0  0  0  0  4           0  0  0
    3.9512    1.2000    0.3171 C   0  0  0  0  0  4           0  0  0
    5.7065    0.0560    2.3936 C   0  0  0  0  0  4           0  0  0
    5.4714    1.2500    0.1854 C   0  0  0  0  0  4           0  0  0
    6.1552    1.2439    1.5487 C   0  0  0  0  0  4           0  0  0
  1  8  1  0     0  0
  2  6  2  0     0  0
  3  9  1  0     0  0
  3 18  1  0     0  0
  4  9  2  0     0  0
  4 10  1  0     0  0
  5 10  2  0     0  0
  5 11  1  0     0  0
  6 12  1  0     0  0
  7 10  1  0     0  0
  7 13  1  0     0  0
  8 14  1  0     0  0
  8 15  2  0     0  0
  9 12  1  0     0  0
 11 12  2  0     0  0
 13 14  2  0     0  0
 13 16  1  0     0  0
 15 17  1  0     0  0
 16 17  2  0     0  0
 18 19  1  0     0  0
 19 20  1  0     0  0
 19 21  1  0     0  0
 20 22  1  0     0  0
 21 23  1  0     0  0
 22 24  1  0     0  0
 23 24  1  0     0  0
M  END
> <Compound >
26

> <standard_type>
pIC50

> <# Confs.>
25

> <canonical_smiles>
O=NC(C(OCC1CCCCC1)=N2)=CN=C2NC3=CC(Br)=CC=C3

> <standard_relation>
=

> <predicted_activity_value>
5.808940418172602

> <actual_activity_value>
6.301029995663981

> <Publication ID>
nan

> <standard_units>
nM

> hash
16136956853741500436

$$$$
26_
XXILIB    08252103453D 0   0.00000     0.00000

 24 26  0     1  0            999 V2000
    0.9318    1.3666    5.9363 Br  0  0  0  0  0  1           0  0  0
   -0.5458    0.5815   -3.3084 O   0  0  0  0  0  2           0  0  0
    1.3871   -0.0000   -0.0000 O   0  0  0  0  0  2           0  0  0
   -0.6614   -0.0000    1.1844 N   0  0  0  0  0  3           0  0  0
   -2.7237    0.0024    0.0022 N   0  0  0  0  0  3           0  0  0
    0.0727    0.0099   -2.4017 N   0  0  0  0  0  3           0  0  0
   -2.7384   -0.0026    2.3534 N   0  0  0  0  0  3           0  0  0
   -0.7022    0.5620    5.4221 C   0  0  0  0  0  4           0  0  0
    0.0000    0.0000    0.0000 C   0  0  0  0  0  4           0  0  0
   -2.0155   -0.0004    1.1530 C   0  0  0  0  0  4           0  0  0
   -2.0236    0.0047   -1.1546 C   0  0  0  0  0  4           0  0  0
   -0.6405   -0.0023   -1.2306 C   0  0  0  0  0  4           0  0  0
   -2.3026   -0.0047    3.6806 C   0  0  0  0  0  4           0  0  0
   -1.0933    0.5868    4.0797 C   0  0  0  0  0  4           0  0  0
   -1.5027   -0.0470    6.3856 C   0  0  0  0  0  4           0  0  0
   -3.0992   -0.6178    4.6619 C   0  0  0  0  0  4           0  0  0
   -2.7037   -0.6377    6.0018 C   0  0  0  0  0  4           0  0  0
    1.9729    0.6508    1.1272 C   0  0  0  0  0  4           0  0  0
    3.3153    1.2436    0.7092 C   0  0  2  0  0  4           0  0  0
    4.0013    1.9621    1.8836 C   0  0  0  0  0  4           0  0  0
    3.1342    2.1985   -0.4787 C   0  0  0  0  0  4           0  0  0
    5.3197    2.6061    1.4602 C   0  0  0  0  0  4           0  0  0
    4.4557    2.8386   -0.8970 C   0  0  0  0  0  4           0  0  0
    5.1344    3.5445    0.2722 C   0  0  0  0  0  4           0  0  0
  1  8  1  0     0  0
  2  6  2  0     0  0
  3  9  1  0     0  0
  3 18  1  0     0  0
  4  9  2  0     0  0
  4 10  1  0     0  0
  5 10  2  0     0  0
  5 11  1  0     0  0
  6 12  1  0     0  0
  7 10  1  0     0  0
  7 13  1  0     0  0
  8 14  1  0     0  0
  8 15  2  0     0  0
  9 12  1  0     0  0
 11 12  2  0     0  0
 13 14  2  0     0  0
 13 16  1  0     0  0
 15 17  1  0     0  0
 16 17  2  0     0  0
 18 19  1  0     0  0
 19 20  1  0     0  0
 19 21  1  0     0  0
 20 22  1  0     0  0
 21 23  1  0     0  0
 22 24  1  0     0  0
 23 24  1  0     0  0
M  END
> <Compound >
26

> <standard_type>
pIC50

> <# Confs.>
25

> <canonical_smiles>
O=NC(C(OCC1CCCCC1)=N2)=CN=C2NC3=CC(Br)=CC=C3

> <standard_relation>
=

> <predicted_activity_value>
5.808940418172602

> <actual_activity_value>
6.301029995663981

> <Publication ID>
nan

> <standard_units>
nM

> hash
16136956853741500436

$$$$
26_
XXILIB    08252103453D 0   0.00000     0.00000

 24 26  0     1  0            999 V2000
   -7.6212    1.3645    0.7811 Br  0  0  0  0  0  1           0  0  0
   -0.5333   -0.5681   -3.3128 O   0  0  0  0  0  2           0  0  0
    1.3871    0.0000    0.0000 O   0  0  0  0  0  2           0  0  0
   -0.6614    0.0000    1.1844 N   0  0  0  0  0  3           0  0  0
   -2.7237    0.0024    0.0022 N   0  0  0  0  0  3           0  0  0
    0.0727    0.0099   -2.4017 N   0  0  0  0  0  3           0  0  0
   -2.7384   -0.0026    2.3534 N   0  0  0  0  0  3           0  0  0
   -6.4032    0.5591    1.9851 C   0  0  0  0  0  4           0  0  0
    0.0000    0.0000   -0.0000 C   0  0  0  0  0  4           0  0  0
   -2.0155   -0.0004    1.1530 C   0  0  0  0  0  4           0  0  0
   -2.0236    0.0047   -1.1546 C   0  0  0  0  0  4           0  0  0
   -0.6405   -0.0023   -1.2306 C   0  0  0  0  0  4           0  0  0
   -4.1153   -0.0034    2.5890 C   0  0  0  0  0  4           0  0  0
   -5.0330    0.5896    1.7070 C   0  0  0  0  0  4           0  0  0
   -6.8820   -0.0587    3.1380 C   0  0  0  0  0  4           0  0  0
   -4.6112   -0.6208    3.7492 C   0  0  0  0  0  4           0  0  0
   -5.9815   -0.6494    4.0206 C   0  0  0  0  0  4           0  0  0
    1.9729    0.0000    1.3016 C   0  0  0  0  0  4           0  0  0
    3.4918    0.0000    1.1566 C   0  0  2  0  0  4           0  0  0
    3.9821   -1.2404    0.3904 C   0  0  0  0  0  4           0  0  0
    4.1629    0.0859    2.5343 C   0  0  0  0  0  4           0  0  0
    5.5055   -1.2768    0.2888 C   0  0  0  0  0  4           0  0  0
    5.6854    0.0493    2.4256 C   0  0  0  0  0  4           0  0  0
    6.1658   -1.1792    1.6601 C   0  0  0  0  0  4           0  0  0
  1  8  1  0     0  0
  2  6  2  0     0  0
  3  9  1  0     0  0
  3 18  1  0     0  0
  4  9  2  0     0  0
  4 10  1  0     0  0
  5 10  2  0     0  0
  5 11  1  0     0  0
  6 12  1  0     0  0
  7 10  1  0     0  0
  7 13  1  0     0  0
  8 14  1  0     0  0
  8 15  2  0     0  0
  9 12  1  0     0  0
 11 12  2  0     0  0
 13 14  2  0     0  0
 13 16  1  0     0  0
 15 17  1  0     0  0
 16 17  2  0     0  0
 18 19  1  0     0  0
 19 20  1  0     0  0
 19 21  1  0     0  0
 20 22  1  0     0  0
 21 23  1  0     0  0
 22 24  1  0     0  0
 23 24  1  0     0  0
M  END
> <Compound >
26

> <standard_type>
pIC50

> <# Confs.>
25

> <canonical_smiles>
O=NC(C(OCC1CCCCC1)=N2)=CN=C2NC3=CC(Br)=CC=C3

> <standard_relation>
=

> <predicted_activity_value>
5.808940418172602

> <actual_activity_value>
6.301029995663981

> <Publication ID>
nan

> <standard_units>
nM

> hash
16136956853741500436

$$$$
26_
XXILIB    08252103453D 0   0.00000     0.00000

 24 26  0     1  0            999 V2000
   -3.5773    1.3544    7.4167 Br  0  0  0  0  0  1           0  0  0
   -0.5333   -0.5681   -3.3128 O   0  0  0  0  0  2           0  0  0
    1.3871    0.0000    0.0000 O   0  0  0  0  0  2           0  0  0
   -0.6614   -0.0000    1.1844 N   0  0  0  0  0  3           0  0  0
   -2.7237    0.0024    0.0022 N   0  0  0  0  0  3           0  0  0
    0.0727    0.0099   -2.4017 N   0  0  0  0  0  3           0  0  0
   -2.7384   -0.0026    2.3534 N   0  0  0  0  0  3           0  0  0
   -2.5642    0.5534    6.0334 C   0  0  0  0  0  4           0  0  0
    0.0000    0.0000    0.0000 C   0  0  0  0  0  4           0  0  0
   -2.0155   -0.0004    1.1530 C   0  0  0  0  0  4           0  0  0
   -2.0236    0.0047   -1.1546 C   0  0  0  0  0  4           0  0  0
   -0.6405   -0.0023   -1.2306 C   0  0  0  0  0  4           0  0  0
   -2.3026   -0.0047    3.6806 C   0  0  0  0  0  4           0  0  0
   -3.0411    0.5851    4.7191 C   0  0  0  0  0  4           0  0  0
   -1.3521   -0.0625    6.3362 C   0  0  0  0  0  4           0  0  0
   -1.0808   -0.6202    3.9992 C   0  0  0  0  0  4           0  0  0
   -0.6105   -0.6500    5.3146 C   0  0  0  0  0  4           0  0  0
    1.9729    0.0000    1.3016 C   0  0  0  0  0  4           0  0  0
    3.4918    0.0000    1.1566 C   0  0  2  0  0  4           0  0  0
    3.9821    1.2404    0.3904 C   0  0  0  0  0  4           0  0  0
    3.9653   -1.2859    0.4652 C   0  0  0  0  0  4           0  0  0
    5.4963    1.2207    0.1922 C   0  0  0  0  0  4           0  0  0
    5.4796   -1.2993    0.2704 C   0  0  0  0  0  4           0  0  0
    5.9610   -0.0646   -0.4846 C   0  0  0  0  0  4           0  0  0
  1  8  1  0     0  0
  2  6  2  0     0  0
  3  9  1  0     0  0
  3 18  1  0     0  0
  4  9  2  0     0  0
  4 10  1  0     0  0
  5 10  2  0     0  0
  5 11  1  0     0  0
  6 12  1  0     0  0
  7 10  1  0     0  0
  7 13  1  0     0  0
  8 14  1  0     0  0
  8 15  2  0     0  0
  9 12  1  0     0  0
 11 12  2  0     0  0
 13 14  2  0     0  0
 13 16  1  0     0  0
 15 17  1  0     0  0
 16 17  2  0     0  0
 18 19  1  0     0  0
 19 20  1  0     0  0
 19 21  1  0     0  0
 20 22  1  0     0  0
 21 23  1  0     0  0
 22 24  1  0     0  0
 23 24  1  0     0  0
M  END
> <Compound >
26

> <standard_type>
pIC50

> <# Confs.>
25

> <canonical_smiles>
O=NC(C(OCC1CCCCC1)=N2)=CN=C2NC3=CC(Br)=CC=C3

> <standard_relation>
=

> <predicted_activity_value>
5.808940418172602

> <actual_activity_value>
6.301029995663981

> <Publication ID>
nan

> <standard_units>
nM

> hash
16136956853741500436

$$$$
26_
XXILIB    08252103453D 0   0.00000     0.00000

 24 26  0     1  0            999 V2000
   -7.6196   -1.3756    0.7812 Br  0  0  0  0  0  1           0  0  0
   -0.5333   -0.5681   -3.3128 O   0  0  0  0  0  2           0  0  0
    1.3871    0.0000    0.0000 O   0  0  0  0  0  2           0  0  0
   -0.6614    0.0000    1.1844 N   0  0  0  0  0  3           0  0  0
   -2.7237    0.0024    0.0022 N   0  0  0  0  0  3           0  0  0
    0.0727    0.0099   -2.4017 N   0  0  0  0  0  3           0  0  0
   -2.7384   -0.0026    2.3534 N   0  0  0  0  0  3           0  0  0
   -6.4021   -0.5723    1.9872 C   0  0  0  0  0  4           0  0  0
    0.0000    0.0000   -0.0000 C   0  0  0  0  0  4           0  0  0
   -2.0155   -0.0004    1.1530 C   0  0  0  0  0  4           0  0  0
   -2.0236    0.0047   -1.1546 C   0  0  0  0  0  4           0  0  0
   -0.6405   -0.0023   -1.2306 C   0  0  0  0  0  4           0  0  0
   -4.1153   -0.0034    2.5890 C   0  0  0  0  0  4           0  0  0
   -5.0327   -0.5940    1.7050 C   0  0  0  0  0  4           0  0  0
   -6.8805    0.0328    3.1470 C   0  0  0  0  0  4           0  0  0
   -4.6111    0.6057    3.7536 C   0  0  0  0  0  4           0  0  0
   -5.9805    0.6225    4.0307 C   0  0  0  0  0  4           0  0  0
    1.9729    0.0000    1.3016 C   0  0  0  0  0  4           0  0  0
    3.4918    0.0000    1.1566 C   0  0  2  0  0  4           0  0  0
    3.9821   -1.2404    0.3904 C   0  0  0  0  0  4           0  0  0
    4.1629    0.0859    2.5343 C   0  0  0  0  0  4           0  0  0
    5.5055   -1.2768    0.2888 C   0  0  0  0  0  4           0  0  0
    5.6854    0.0493    2.4256 C   0  0  0  0  0  4           0  0  0
    6.1658   -1.1792    1.6601 C   0  0  0  0  0  4           0  0  0
  1  8  1  0     0  0
  2  6  2  0     0  0
  3  9  1  0     0  0
  3 18  1  0     0  0
  4  9  2  0     0  0
  4 10  1  0     0  0
  5 10  2  0     0  0
  5 11  1  0     0  0
  6 12  1  0     0  0
  7 10  1  0     0  0
  7 13  1  0     0  0
  8 14  1  0     0  0
  8 15  2  0     0  0
  9 12  1  0     0  0
 11 12  2  0     0  0
 13 14  2  0     0  0
 13 16  1  0     0  0
 15 17  1  0     0  0
 16 17  2  0     0  0
 18 19  1  0     0  0
 19 20  1  0     0  0
 19 21  1  0     0  0
 20 22  1  0     0  0
 21 23  1  0     0  0
 22 24  1  0     0  0
 23 24  1  0     0  0
M  END
> <Compound >
26

> <standard_type>
pIC50

> <# Confs.>
25

> <canonical_smiles>
O=NC(C(OCC1CCCCC1)=N2)=CN=C2NC3=CC(Br)=CC=C3

> <standard_relation>
=

> <predicted_activity_value>
5.808940418172602

> <actual_activity_value>
6.301029995663981

> <Publication ID>
nan

> <standard_units>
nM

> hash
16136956853741500436

$$$$
26_
XXILIB    08252103453D 0   0.00000     0.00000

 24 26  0     1  0            999 V2000
   -3.5719   -1.3856    7.4106 Br  0  0  0  0  0  1           0  0  0
   -0.5333   -0.5681   -3.3128 O   0  0  0  0  0  2           0  0  0
    1.3871    0.0000    0.0000 O   0  0  0  0  0  2           0  0  0
   -0.6614   -0.0000    1.1844 N   0  0  0  0  0  3           0  0  0
   -2.7237    0.0024    0.0022 N   0  0  0  0  0  3           0  0  0
    0.0727    0.0099   -2.4017 N   0  0  0  0  0  3           0  0  0
   -2.7384   -0.0026    2.3534 N   0  0  0  0  0  3           0  0  0
   -2.5600   -0.5780    6.0302 C   0  0  0  0  0  4           0  0  0
    0.0000    0.0000    0.0000 C   0  0  0  0  0  4           0  0  0
   -2.0155   -0.0004    1.1530 C   0  0  0  0  0  4           0  0  0
   -2.0236    0.0047   -1.1546 C   0  0  0  0  0  4           0  0  0
   -0.6405   -0.0023   -1.2306 C   0  0  0  0  0  4           0  0  0
   -2.3026   -0.0047    3.6806 C   0  0  0  0  0  4           0  0  0
   -3.0407   -0.5985    4.7171 C   0  0  0  0  0  4           0  0  0
   -1.3436    0.0290    6.3335 C   0  0  0  0  0  4           0  0  0
   -1.0789    0.6063    4.0006 C   0  0  0  0  0  4           0  0  0
   -0.6032    0.6220    5.3142 C   0  0  0  0  0  4           0  0  0
    1.9729    0.0000    1.3016 C   0  0  0  0  0  4           0  0  0
    3.4918    0.0000    1.1566 C   0  0  2  0  0  4           0  0  0
    3.9821    1.2404    0.3904 C   0  0  0  0  0  4           0  0  0
    3.9653   -1.2859    0.4652 C   0  0  0  0  0  4           0  0  0
    5.4963    1.2207    0.1922 C   0  0  0  0  0  4           0  0  0
    5.4796   -1.2993    0.2704 C   0  0  0  0  0  4           0  0  0
    5.9610   -0.0646   -0.4846 C   0  0  0  0  0  4           0  0  0
  1  8  1  0     0  0
  2  6  2  0     0  0
  3  9  1  0     0  0
  3 18  1  0     0  0
  4  9  2  0     0  0
  4 10  1  0     0  0
  5 10  2  0     0  0
  5 11  1  0     0  0
  6 12  1  0     0  0
  7 10  1  0     0  0
  7 13  1  0     0  0
  8 14  1  0     0  0
  8 15  2  0     0  0
  9 12  1  0     0  0
 11 12  2  0     0  0
 13 14  2  0     0  0
 13 16  1  0     0  0
 15 17  1  0     0  0
 16 17  2  0     0  0
 18 19  1  0     0  0
 19 20  1  0     0  0
 19 21  1  0     0  0
 20 22  1  0     0  0
 21 23  1  0     0  0
 22 24  1  0     0  0
 23 24  1  0     0  0
M  END
> <Compound >
26

> <standard_type>
pIC50

> <# Confs.>
25

> <canonical_smiles>
O=NC(C(OCC1CCCCC1)=N2)=CN=C2NC3=CC(Br)=CC=C3

> <standard_relation>
=

> <predicted_activity_value>
5.808940418172602

> <actual_activity_value>
6.301029995663981

> <Publication ID>
nan

> <standard_units>
nM

> hash
16136956853741500436

$$$$
26_
XXILIB    08252103453D 0   0.00000     0.00000

 24 26  0     1  0            999 V2000
    1.2833   -0.0024    5.8188 Br  0  0  0  0  0  1           0  0  0
   -0.5458    0.5815   -3.3084 O   0  0  0  0  0  2           0  0  0
    1.3871    0.0000    0.0000 O   0  0  0  0  0  2           0  0  0
   -0.6614   -0.0000    1.1844 N   0  0  0  0  0  3           0  0  0
   -2.7237    0.0024    0.0022 N   0  0  0  0  0  3           0  0  0
    0.0727    0.0099   -2.4017 N   0  0  0  0  0  3           0  0  0
   -2.7384   -0.0026    2.3534 N   0  0  0  0  0  3           0  0  0
   -0.5561   -0.0030    5.3732 C   0  0  0  0  0  4           0  0  0
    0.0000    0.0000    0.0000 C   0  0  0  0  0  4           0  0  0
   -2.0155   -0.0004    1.1530 C   0  0  0  0  0  4           0  0  0
   -2.0236    0.0047   -1.1546 C   0  0  0  0  0  4           0  0  0
   -0.6405   -0.0023   -1.2306 C   0  0  0  0  0  4           0  0  0
   -2.3026   -0.0047    3.6806 C   0  0  0  0  0  4           0  0  0
   -0.9424   -0.0049    4.0292 C   0  0  0  0  0  4           0  0  0
   -1.5101   -0.0001    6.3881 C   0  0  0  0  0  4           0  0  0
   -3.2544   -0.0044    4.7138 C   0  0  0  0  0  4           0  0  0
   -2.8619   -0.0008    6.0547 C   0  0  0  0  0  4           0  0  0
    1.9729    0.6508    1.1272 C   0  0  0  0  0  4           0  0  0
    3.4918    0.5783    1.0016 C   0  0  2  0  0  4           0  0  0
    3.9821    1.2694   -0.2821 C   0  0  0  0  0  4           0  0  0
    3.9653   -0.8811    1.0458 C   0  0  0  0  0  4           0  0  0
    5.4963    1.1533   -0.4440 C   0  0  0  0  0  4           0  0  0
    5.4796   -0.9900    0.8838 C   0  0  0  0  0  4           0  0  0
    5.9610   -0.2983   -0.3873 C   0  0  0  0  0  4           0  0  0
  1  8  1  0     0  0
  2  6  2  0     0  0
  3  9  1  0     0  0
  3 18  1  0     0  0
  4  9  2  0     0  0
  4 10  1  0     0  0
  5 10  2  0     0  0
  5 11  1  0     0  0
  6 12  1  0     0  0
  7 10  1  0     0  0
  7 13  1  0     0  0
  8 14  1  0     0  0
  8 15  2  0     0  0
  9 12  1  0     0  0
 11 12  2  0     0  0
 13 14  2  0     0  0
 13 16  1  0     0  0
 15 17  1  0     0  0
 16 17  2  0     0  0
 18 19  1  0     0  0
 19 20  1  0     0  0
 19 21  1  0     0  0
 20 22  1  0     0  0
 21 23  1  0     0  0
 22 24  1  0     0  0
 23 24  1  0     0  0
M  END
> <Compound >
26

> <standard_type>
pIC50

> <# Confs.>
25

> <canonical_smiles>
O=NC(C(OCC1CCCCC1)=N2)=CN=C2NC3=CC(Br)=CC=C3

> <standard_relation>
=

> <predicted_activity_value>
5.808940418172602

> <actual_activity_value>
6.301029995663981

> <Publication ID>
nan

> <standard_units>
nM

> hash
16136956853741500436

$$$$
26_
XXILIB    08252103453D 0   0.00000     0.00000

 24 26  0     1  0            999 V2000
   -7.6212    1.3645    0.7811 Br  0  0  0  0  0  1           0  0  0
   -0.5333   -0.5681   -3.3128 O   0  0  0  0  0  2           0  0  0
    1.3871    0.0000    0.0000 O   0  0  0  0  0  2           0  0  0
   -0.6614    0.0000    1.1844 N   0  0  0  0  0  3           0  0  0
   -2.7237    0.0024    0.0022 N   0  0  0  0  0  3           0  0  0
    0.0727    0.0099   -2.4017 N   0  0  0  0  0  3           0  0  0
   -2.7384   -0.0026    2.3534 N   0  0  0  0  0  3           0  0  0
   -6.4032    0.5591    1.9851 C   0  0  0  0  0  4           0  0  0
    0.0000    0.0000   -0.0000 C   0  0  0  0  0  4           0  0  0
   -2.0155   -0.0004    1.1530 C   0  0  0  0  0  4           0  0  0
   -2.0236    0.0047   -1.1546 C   0  0  0  0  0  4           0  0  0
   -0.6405   -0.0023   -1.2306 C   0  0  0  0  0  4           0  0  0
   -4.1153   -0.0034    2.5890 C   0  0  0  0  0  4           0  0  0
   -5.0330    0.5896    1.7070 C   0  0  0  0  0  4           0  0  0
   -6.8820   -0.0587    3.1380 C   0  0  0  0  0  4           0  0  0
   -4.6112   -0.6208    3.7492 C   0  0  0  0  0  4           0  0  0
   -5.9815   -0.6494    4.0206 C   0  0  0  0  0  4           0  0  0
    1.9729    0.0000    1.3016 C   0  0  0  0  0  4           0  0  0
    3.4918    0.0000    1.1566 C   0  0  2  0  0  4           0  0  0
    4.1863    0.0000    2.5290 C   0  0  0  0  0  4           0  0  0
    3.9512    1.2000    0.3171 C   0  0  0  0  0  4           0  0  0
    5.7065    0.0560    2.3936 C   0  0  0  0  0  4           0  0  0
    5.4714    1.2500    0.1854 C   0  0  0  0  0  4           0  0  0
    6.1552    1.2439    1.5487 C   0  0  0  0  0  4           0  0  0
  1  8  1  0     0  0
  2  6  2  0     0  0
  3  9  1  0     0  0
  3 18  1  0     0  0
  4  9  2  0     0  0
  4 10  1  0     0  0
  5 10  2  0     0  0
  5 11  1  0     0  0
  6 12  1  0     0  0
  7 10  1  0     0  0
  7 13  1  0     0  0
  8 14  1  0     0  0
  8 15  2  0     0  0
  9 12  1  0     0  0
 11 12  2  0     0  0
 13 14  2  0     0  0
 13 16  1  0     0  0
 15 17  1  0     0  0
 16 17  2  0     0  0
 18 19  1  0     0  0
 19 20  1  0     0  0
 19 21  1  0     0  0
 20 22  1  0     0  0
 21 23  1  0     0  0
 22 24  1  0     0  0
 23 24  1  0     0  0
M  END
> <Compound >
26

> <standard_type>
pIC50

> <# Confs.>
25

> <canonical_smiles>
O=NC(C(OCC1CCCCC1)=N2)=CN=C2NC3=CC(Br)=CC=C3

> <standard_relation>
=

> <predicted_activity_value>
5.808940418172602

> <actual_activity_value>
6.301029995663981

> <Publication ID>
nan

> <standard_units>
nM

> hash
16136956853741500436

$$$$
26_
XXILIB    08252103453D 0   0.00000     0.00000

 24 26  0     1  0            999 V2000
   -7.6196   -1.3756    0.7812 Br  0  0  0  0  0  1           0  0  0
   -0.5333   -0.5681   -3.3128 O   0  0  0  0  0  2           0  0  0
    1.3871    0.0000    0.0000 O   0  0  0  0  0  2           0  0  0
   -0.6614    0.0000    1.1844 N   0  0  0  0  0  3           0  0  0
   -2.7237    0.0024    0.0022 N   0  0  0  0  0  3           0  0  0
    0.0727    0.0099   -2.4017 N   0  0  0  0  0  3           0  0  0
   -2.7384   -0.0026    2.3534 N   0  0  0  0  0  3           0  0  0
   -6.4021   -0.5723    1.9872 C   0  0  0  0  0  4           0  0  0
    0.0000    0.0000   -0.0000 C   0  0  0  0  0  4           0  0  0
   -2.0155   -0.0004    1.1530 C   0  0  0  0  0  4           0  0  0
   -2.0236    0.0047   -1.1546 C   0  0  0  0  0  4           0  0  0
   -0.6405   -0.0023   -1.2306 C   0  0  0  0  0  4           0  0  0
   -4.1153   -0.0034    2.5890 C   0  0  0  0  0  4           0  0  0
   -5.0327   -0.5940    1.7050 C   0  0  0  0  0  4           0  0  0
   -6.8805    0.0328    3.1470 C   0  0  0  0  0  4           0  0  0
   -4.6111    0.6057    3.7536 C   0  0  0  0  0  4           0  0  0
   -5.9805    0.6225    4.0307 C   0  0  0  0  0  4           0  0  0
    1.9729    0.0000    1.3016 C   0  0  0  0  0  4           0  0  0
    3.4918    0.0000    1.1566 C   0  0  2  0  0  4           0  0  0
    4.1863    0.0000    2.5290 C   0  0  0  0  0  4           0  0  0
    3.9512    1.2000    0.3171 C   0  0  0  0  0  4           0  0  0
    5.7065    0.0560    2.3936 C   0  0  0  0  0  4           0  0  0
    5.4714    1.2500    0.1854 C   0  0  0  0  0  4           0  0  0
    6.1552    1.2439    1.5487 C   0  0  0  0  0  4           0  0  0
  1  8  1  0     0  0
  2  6  2  0     0  0
  3  9  1  0     0  0
  3 18  1  0     0  0
  4  9  2  0     0  0
  4 10  1  0     0  0
  5 10  2  0     0  0
  5 11  1  0     0  0
  6 12  1  0     0  0
  7 10  1  0     0  0
  7 13  1  0     0  0
  8 14  1  0     0  0
  8 15  2  0     0  0
  9 12  1  0     0  0
 11 12  2  0     0  0
 13 14  2  0     0  0
 13 16  1  0     0  0
 15 17  1  0     0  0
 16 17  2  0     0  0
 18 19  1  0     0  0
 19 20  1  0     0  0
 19 21  1  0     0  0
 20 22  1  0     0  0
 21 23  1  0     0  0
 22 24  1  0     0  0
 23 24  1  0     0  0
M  END
> <Compound >
26

> <standard_type>
pIC50

> <# Confs.>
25

> <canonical_smiles>
O=NC(C(OCC1CCCCC1)=N2)=CN=C2NC3=CC(Br)=CC=C3

> <standard_relation>
=

> <predicted_activity_value>
5.808940418172602

> <actual_activity_value>
6.301029995663981

> <Publication ID>
nan

> <standard_units>
nM

> hash
16136956853741500436

$$$$
19_
XXILIB    08252103453D 0   0.00000     0.00000

 24 25  0     1  0            999 V2000
    5.3868    0.0627    4.4422 S   0  0  1  0  0  6           0  0  0
    4.6538   -0.0453    5.6884 O   0  0  0  0  0  2           0  0  0
    6.2769    1.1804    4.1967 O   0  0  0  0  0  2           0  0  0
   -2.7352   -0.0298    2.3098 O   0  0  0  0  0  2           0  0  0
   -4.8357    0.4749   -1.0245 O   0  0  0  0  0  2           0  0  0
   -0.6719   -0.0000    1.1710 N   0  0  0  0  0  3           0  0  0
   -0.6198    0.0005   -1.2019 N   0  0  0  0  0  3           0  0  0
    6.2193   -1.3964    4.1506 N   0  0  0  0  0  3           0  0  0
    1.4050    0.0000    0.0000 N   0  0  0  0  0  3           0  0  0
   -2.5675    0.0048   -2.5074 N   0  0  0  0  0  3           0  0  0
    4.2101    0.0231    3.1287 C   0  0  0  0  0  4           0  0  0
   -2.0236   -0.0073    1.1197 C   0  0  0  0  0  4           0  0  0
    0.0000   -0.0000    0.0000 C   0  0  0  0  0  4           0  0  0
   -1.9759    0.0186   -1.2467 C   0  0  0  0  0  4           0  0  0
    2.3172    0.0000    1.0582 C   0  0  0  0  0  4           0  0  0
   -2.7318   -0.0058   -0.0763 C   0  0  0  0  0  4           0  0  0
    2.9720   -0.5806    3.3341 C   0  0  0  0  0  4           0  0  0
    4.5149    0.6285    1.9129 C   0  0  0  0  0  4           0  0  0
    2.0331   -0.5921    2.2992 C   0  0  0  0  0  4           0  0  0
    3.5697    0.6126    0.8849 C   0  0  0  0  0  4           0  0  0
   -4.1983   -0.0428   -0.1167 C   0  0  0  0  0  4           0  0  0
   -1.9463   -0.0433    3.5009 C   0  0  1  0  0  4           0  0  0
   -2.7545    0.6642    4.5844 C   0  0  0  0  0  4           0  0  0
   -1.6555   -1.4856    3.9079 C   0  0  0  0  0  4           0  0  0
  1  2  2  0     0  0
  1  3  2  0     0  0
  1  8  1  0     0  0
  1 11  1  0     0  0
  4 12  1  0     0  0
  4 22  1  0     0  0
  5 21  2  0     0  0
  6 12  2  0     0  0
  6 13  1  0     0  0
  7 13  2  0     0  0
  7 14  1  0     0  0
  9 13  1  0     0  0
  9 15  1  0     0  0
 10 14  1  0     0  0
 11 17  1  0     0  0
 11 18  2  0     0  0
 12 16  1  0     0  0
 14 16  2  0     0  0
 15 19  1  0     0  0
 15 20  2  0     0  0
 16 21  1  0     0  0
 17 19  2  0     0  0
 18 20  1  0     0  0
 22 23  1  0     0  0
 22 24  1  0     0  0
M  END
> <Compound >
19

> <standard_type>
pIC50

> <# Confs.>
25

> <canonical_smiles>
O=S(C(C=C1)=CC=C1NC2=NC(N)=C(C([H])=O)C(OC(C)C)=N2)(N)=O

> <standard_relation>
=

> <predicted_activity_value>
7.131355561605174

> <actual_activity_value>
7.585026652029182

> <Publication ID>
nan

> <standard_units>
nM

> hash
7438502009623155154

$$$$
19_
XXILIB    08252103453D 0   0.00000     0.00000

 24 25  0     1  0            999 V2000
    5.3842   -0.0686    4.4444 S   0  0  1  0  0  6           0  0  0
    5.0988    1.0629    5.3049 O   0  0  0  0  0  2           0  0  0
    6.6915   -0.2324    3.8393 O   0  0  0  0  0  2           0  0  0
   -2.7352   -0.0298    2.3098 O   0  0  0  0  0  2           0  0  0
   -4.8357    0.4749   -1.0245 O   0  0  0  0  0  2           0  0  0
   -0.6719   -0.0000    1.1710 N   0  0  0  0  0  3           0  0  0
   -0.6198    0.0005   -1.2019 N   0  0  0  0  0  3           0  0  0
    4.9487   -1.5091    5.2459 N   0  0  0  0  0  3           0  0  0
    1.4050    0.0000   -0.0000 N   0  0  0  0  0  3           0  0  0
   -2.5675    0.0048   -2.5074 N   0  0  0  0  0  3           0  0  0
    4.1943   -0.0593    3.1424 C   0  0  0  0  0  4           0  0  0
   -2.0236   -0.0073    1.1197 C   0  0  0  0  0  4           0  0  0
    0.0000   -0.0000    0.0000 C   0  0  0  0  0  4           0  0  0
   -1.9759    0.0186   -1.2467 C   0  0  0  0  0  4           0  0  0
    2.3172    0.0000    1.0582 C   0  0  0  0  0  4           0  0  0
   -2.7318   -0.0058   -0.0763 C   0  0  0  0  0  4           0  0  0
    2.9661    0.5672    3.3392 C   0  0  0  0  0  4           0  0  0
    4.5081   -0.6440    1.9187 C   0  0  0  0  0  4           0  0  0
    2.0331    0.5921    2.2992 C   0  0  0  0  0  4           0  0  0
    3.5694   -0.6133    0.8852 C   0  0  0  0  0  4           0  0  0
   -4.1983   -0.0428   -0.1167 C   0  0  0  0  0  4           0  0  0
   -1.9463   -0.0433    3.5009 C   0  0  1  0  0  4           0  0  0
   -2.7545    0.6642    4.5844 C   0  0  0  0  0  4           0  0  0
   -1.6555   -1.4856    3.9079 C   0  0  0  0  0  4           0  0  0
  1  2  2  0     0  0
  1  3  2  0     0  0
  1  8  1  0     0  0
  1 11  1  0     0  0
  4 12  1  0     0  0
  4 22  1  0     0  0
  5 21  2  0     0  0
  6 12  2  0     0  0
  6 13  1  0     0  0
  7 13  2  0     0  0
  7 14  1  0     0  0
  9 13  1  0     0  0
  9 15  1  0     0  0
 10 14  1  0     0  0
 11 17  1  0     0  0
 11 18  2  0     0  0
 12 16  1  0     0  0
 14 16  2  0     0  0
 15 19  1  0     0  0
 15 20  2  0     0  0
 16 21  1  0     0  0
 17 19  2  0     0  0
 18 20  1  0     0  0
 22 23  1  0     0  0
 22 24  1  0     0  0
M  END
> <Compound >
19

> <standard_type>
pIC50

> <# Confs.>
25

> <canonical_smiles>
O=S(C(C=C1)=CC=C1NC2=NC(N)=C(C([H])=O)C(OC(C)C)=N2)(N)=O

> <standard_relation>
=

> <predicted_activity_value>
7.131355561605174

> <actual_activity_value>
7.585026652029182

> <Publication ID>
nan

> <standard_units>
nM

> hash
7438502009623155154

$$$$
19_
XXILIB    08252103453D 0   0.00000     0.00000

 24 25  0     1  0            999 V2000
    5.3868    0.0627    4.4422 S   0  0  1  0  0  6           0  0  0
    6.7023    0.1903    3.8461 O   0  0  0  0  0  2           0  0  0
    5.0786   -1.0355    5.3371 O   0  0  0  0  0  2           0  0  0
   -2.7352   -0.0298    2.3098 O   0  0  0  0  0  2           0  0  0
   -4.8357    0.4749   -1.0245 O   0  0  0  0  0  2           0  0  0
   -0.6719   -0.0000    1.1710 N   0  0  0  0  0  3           0  0  0
   -0.6198    0.0005   -1.2019 N   0  0  0  0  0  3           0  0  0
    4.9620    1.5355    5.1887 N   0  0  0  0  0  3           0  0  0
    1.4050    0.0000    0.0000 N   0  0  0  0  0  3           0  0  0
   -2.5675    0.0048   -2.5074 N   0  0  0  0  0  3           0  0  0
    4.2101    0.0231    3.1287 C   0  0  0  0  0  4           0  0  0
   -2.0236   -0.0073    1.1197 C   0  0  0  0  0  4           0  0  0
    0.0000   -0.0000    0.0000 C   0  0  0  0  0  4           0  0  0
   -1.9759    0.0186   -1.2467 C   0  0  0  0  0  4           0  0  0
    2.3172    0.0000    1.0582 C   0  0  0  0  0  4           0  0  0
   -2.7318   -0.0058   -0.0763 C   0  0  0  0  0  4           0  0  0
    2.9720   -0.5806    3.3341 C   0  0  0  0  0  4           0  0  0
    4.5149    0.6285    1.9129 C   0  0  0  0  0  4           0  0  0
    2.0331   -0.5921    2.2992 C   0  0  0  0  0  4           0  0  0
    3.5697    0.6126    0.8849 C   0  0  0  0  0  4           0  0  0
   -4.1983   -0.0428   -0.1167 C   0  0  0  0  0  4           0  0  0
   -1.9463   -0.0433    3.5009 C   0  0  1  0  0  4           0  0  0
   -2.7545    0.6642    4.5844 C   0  0  0  0  0  4           0  0  0
   -1.6555   -1.4856    3.9079 C   0  0  0  0  0  4           0  0  0
  1  2  2  0     0  0
  1  3  2  0     0  0
  1  8  1  0     0  0
  1 11  1  0     0  0
  4 12  1  0     0  0
  4 22  1  0     0  0
  5 21  2  0     0  0
  6 12  2  0     0  0
  6 13  1  0     0  0
  7 13  2  0     0  0
  7 14  1  0     0  0
  9 13  1  0     0  0
  9 15  1  0     0  0
 10 14  1  0     0  0
 11 17  1  0     0  0
 11 18  2  0     0  0
 12 16  1  0     0  0
 14 16  2  0     0  0
 15 19  1  0     0  0
 15 20  2  0     0  0
 16 21  1  0     0  0
 17 19  2  0     0  0
 18 20  1  0     0  0
 22 23  1  0     0  0
 22 24  1  0     0  0
M  END
> <Compound >
19

> <standard_type>
pIC50

> <# Confs.>
25

> <canonical_smiles>
O=S(C(C=C1)=CC=C1NC2=NC(N)=C(C([H])=O)C(OC(C)C)=N2)(N)=O

> <standard_relation>
=

> <predicted_activity_value>
7.131355561605174

> <actual_activity_value>
7.585026652029182

> <Publication ID>
nan

> <standard_units>
nM

> hash
7438502009623155154

$$$$
19_
XXILIB    08252103453D 0   0.00000     0.00000

 24 25  0     1  0            999 V2000
    5.3842   -0.0686    4.4444 S   0  0  1  0  0  6           0  0  0
    6.2587   -1.2048    4.2285 O   0  0  0  0  0  2           0  0  0
    4.6654    0.0905    5.6933 O   0  0  0  0  0  2           0  0  0
   -2.7352   -0.0298    2.3098 O   0  0  0  0  0  2           0  0  0
   -4.8357    0.4749   -1.0245 O   0  0  0  0  0  2           0  0  0
   -0.6719   -0.0000    1.1710 N   0  0  0  0  0  3           0  0  0
   -0.6198    0.0005   -1.2019 N   0  0  0  0  0  3           0  0  0
    6.2319    1.3685    4.0939 N   0  0  0  0  0  3           0  0  0
    1.4050    0.0000   -0.0000 N   0  0  0  0  0  3           0  0  0
   -2.5675    0.0048   -2.5074 N   0  0  0  0  0  3           0  0  0
    4.1943   -0.0593    3.1424 C   0  0  0  0  0  4           0  0  0
   -2.0236   -0.0073    1.1197 C   0  0  0  0  0  4           0  0  0
    0.0000   -0.0000    0.0000 C   0  0  0  0  0  4           0  0  0
   -1.9759    0.0186   -1.2467 C   0  0  0  0  0  4           0  0  0
    2.3172    0.0000    1.0582 C   0  0  0  0  0  4           0  0  0
   -2.7318   -0.0058   -0.0763 C   0  0  0  0  0  4           0  0  0
    2.9661    0.5672    3.3392 C   0  0  0  0  0  4           0  0  0
    4.5081   -0.6440    1.9187 C   0  0  0  0  0  4           0  0  0
    2.0331    0.5921    2.2992 C   0  0  0  0  0  4           0  0  0
    3.5694   -0.6133    0.8852 C   0  0  0  0  0  4           0  0  0
   -4.1983   -0.0428   -0.1167 C   0  0  0  0  0  4           0  0  0
   -1.9463   -0.0433    3.5009 C   0  0  1  0  0  4           0  0  0
   -2.7545    0.6642    4.5844 C   0  0  0  0  0  4           0  0  0
   -1.6555   -1.4856    3.9079 C   0  0  0  0  0  4           0  0  0
  1  2  2  0     0  0
  1  3  2  0     0  0
  1  8  1  0     0  0
  1 11  1  0     0  0
  4 12  1  0     0  0
  4 22  1  0     0  0
  5 21  2  0     0  0
  6 12  2  0     0  0
  6 13  1  0     0  0
  7 13  2  0     0  0
  7 14  1  0     0  0
  9 13  1  0     0  0
  9 15  1  0     0  0
 10 14  1  0     0  0
 11 17  1  0     0  0
 11 18  2  0     0  0
 12 16  1  0     0  0
 14 16  2  0     0  0
 15 19  1  0     0  0
 15 20  2  0     0  0
 16 21  1  0     0  0
 17 19  2  0     0  0
 18 20  1  0     0  0
 22 23  1  0     0  0
 22 24  1  0     0  0
M  END
> <Compound >
19

> <standard_type>
pIC50

> <# Confs.>
25

> <canonical_smiles>
O=S(C(C=C1)=CC=C1NC2=NC(N)=C(C([H])=O)C(OC(C)C)=N2)(N)=O

> <standard_relation>
=

> <predicted_activity_value>
7.131355561605174

> <actual_activity_value>
7.585026652029182

> <Publication ID>
nan

> <standard_units>
nM

> hash
7438502009623155154

$$$$
19_
XXILIB    08252103453D 0   0.00000     0.00000

 24 25  0     1  0            999 V2000
    5.3842    0.0686   -4.4444 S   0  0  1  0  0  6           0  0  0
    5.0988   -1.0629   -5.3049 O   0  0  0  0  0  2           0  0  0
    6.6915    0.2324   -3.8393 O   0  0  0  0  0  2           0  0  0
   -2.7352   -0.0298    2.3098 O   0  0  0  0  0  2           0  0  0
   -4.8357    0.4749   -1.0245 O   0  0  0  0  0  2           0  0  0
   -0.6719   -0.0000    1.1710 N   0  0  0  0  0  3           0  0  0
   -0.6198    0.0005   -1.2019 N   0  0  0  0  0  3           0  0  0
    4.9487    1.5091   -5.2459 N   0  0  0  0  0  3           0  0  0
    1.4050   -0.0000    0.0000 N   0  0  0  0  0  3           0  0  0
   -2.5675    0.0048   -2.5074 N   0  0  0  0  0  3           0  0  0
    4.1943    0.0593   -3.1424 C   0  0  0  0  0  4           0  0  0
   -2.0236   -0.0073    1.1197 C   0  0  0  0  0  4           0  0  0
    0.0000   -0.0000    0.0000 C   0  0  0  0  0  4           0  0  0
   -1.9759    0.0186   -1.2467 C   0  0  0  0  0  4           0  0  0
    2.3172    0.0000   -1.0582 C   0  0  0  0  0  4           0  0  0
   -2.7318   -0.0058   -0.0763 C   0  0  0  0  0  4           0  0  0
    2.9661   -0.5672   -3.3392 C   0  0  0  0  0  4           0  0  0
    4.5081    0.6440   -1.9187 C   0  0  0  0  0  4           0  0  0
    2.0331   -0.5921   -2.2992 C   0  0  0  0  0  4           0  0  0
    3.5694    0.6133   -0.8852 C   0  0  0  0  0  4           0  0  0
   -4.1983   -0.0428   -0.1167 C   0  0  0  0  0  4           0  0  0
   -1.9463   -0.0433    3.5009 C   0  0  1  0  0  4           0  0  0
   -2.7545    0.6642    4.5844 C   0  0  0  0  0  4           0  0  0
   -1.6555   -1.4856    3.9079 C   0  0  0  0  0  4           0  0  0
  1  2  2  0     0  0
  1  3  2  0     0  0
  1  8  1  0     0  0
  1 11  1  0     0  0
  4 12  1  0     0  0
  4 22  1  0     0  0
  5 21  2  0     0  0
  6 12  2  0     0  0
  6 13  1  0     0  0
  7 13  2  0     0  0
  7 14  1  0     0  0
  9 13  1  0     0  0
  9 15  1  0     0  0
 10 14  1  0     0  0
 11 17  1  0     0  0
 11 18  2  0     0  0
 12 16  1  0     0  0
 14 16  2  0     0  0
 15 19  1  0     0  0
 15 20  2  0     0  0
 16 21  1  0     0  0
 17 19  2  0     0  0
 18 20  1  0     0  0
 22 23  1  0     0  0
 22 24  1  0     0  0
M  END
> <Compound >
19

> <standard_type>
pIC50

> <# Confs.>
25

> <canonical_smiles>
O=S(C(C=C1)=CC=C1NC2=NC(N)=C(C([H])=O)C(OC(C)C)=N2)(N)=O

> <standard_relation>
=

> <predicted_activity_value>
7.131355561605174

> <actual_activity_value>
7.585026652029182

> <Publication ID>
nan

> <standard_units>
nM

> hash
7438502009623155154

$$$$
19_
XXILIB    08252103453D 0   0.00000     0.00000

 24 25  0     1  0            999 V2000
    5.3868   -0.0627   -4.4422 S   0  0  1  0  0  6           0  0  0
    6.7023   -0.1903   -3.8461 O   0  0  0  0  0  2           0  0  0
    5.0786    1.0355   -5.3371 O   0  0  0  0  0  2           0  0  0
   -2.7352   -0.0298    2.3098 O   0  0  0  0  0  2           0  0  0
   -4.8357    0.4749   -1.0245 O   0  0  0  0  0  2           0  0  0
   -0.6719   -0.0000    1.1710 N   0  0  0  0  0  3           0  0  0
   -0.6198    0.0005   -1.2019 N   0  0  0  0  0  3           0  0  0
    4.9620   -1.5355   -5.1887 N   0  0  0  0  0  3           0  0  0
    1.4050    0.0000    0.0000 N   0  0  0  0  0  3           0  0  0
   -2.5675    0.0048   -2.5074 N   0  0  0  0  0  3           0  0  0
    4.2101   -0.0231   -3.1287 C   0  0  0  0  0  4           0  0  0
   -2.0236   -0.0073    1.1197 C   0  0  0  0  0  4           0  0  0
    0.0000   -0.0000    0.0000 C   0  0  0  0  0  4           0  0  0
   -1.9759    0.0186   -1.2467 C   0  0  0  0  0  4           0  0  0
    2.3172    0.0000   -1.0582 C   0  0  0  0  0  4           0  0  0
   -2.7318   -0.0058   -0.0763 C   0  0  0  0  0  4           0  0  0
    2.9720    0.5806   -3.3341 C   0  0  0  0  0  4           0  0  0
    4.5149   -0.6285   -1.9129 C   0  0  0  0  0  4           0  0  0
    2.0331    0.5921   -2.2992 C   0  0  0  0  0  4           0  0  0
    3.5697   -0.6126   -0.8849 C   0  0  0  0  0  4           0  0  0
   -4.1983   -0.0428   -0.1167 C   0  0  0  0  0  4           0  0  0
   -1.9463   -0.0433    3.5009 C   0  0  1  0  0  4           0  0  0
   -2.7545    0.6642    4.5844 C   0  0  0  0  0  4           0  0  0
   -1.6555   -1.4856    3.9079 C   0  0  0  0  0  4           0  0  0
  1  2  2  0     0  0
  1  3  2  0     0  0
  1  8  1  0     0  0
  1 11  1  0     0  0
  4 12  1  0     0  0
  4 22  1  0     0  0
  5 21  2  0     0  0
  6 12  2  0     0  0
  6 13  1  0     0  0
  7 13  2  0     0  0
  7 14  1  0     0  0
  9 13  1  0     0  0
  9 15  1  0     0  0
 10 14  1  0     0  0
 11 17  1  0     0  0
 11 18  2  0     0  0
 12 16  1  0     0  0
 14 16  2  0     0  0
 15 19  1  0     0  0
 15 20  2  0     0  0
 16 21  1  0     0  0
 17 19  2  0     0  0
 18 20  1  0     0  0
 22 23  1  0     0  0
 22 24  1  0     0  0
M  END
> <Compound >
19

> <standard_type>
pIC50

> <# Confs.>
25

> <canonical_smiles>
O=S(C(C=C1)=CC=C1NC2=NC(N)=C(C([H])=O)C(OC(C)C)=N2)(N)=O

> <standard_relation>
=

> <predicted_activity_value>
7.131355561605174

> <actual_activity_value>
7.585026652029182

> <Publication ID>
nan

> <standard_units>
nM

> hash
7438502009623155154

$$$$
19_
XXILIB    08252103453D 0   0.00000     0.00000

 24 25  0     1  0            999 V2000
    5.3868   -0.0627   -4.4422 S   0  0  1  0  0  6           0  0  0
    4.6538    0.0453   -5.6884 O   0  0  0  0  0  2           0  0  0
    6.2769   -1.1804   -4.1967 O   0  0  0  0  0  2           0  0  0
   -2.7352   -0.0298    2.3098 O   0  0  0  0  0  2           0  0  0
   -4.8357    0.4749   -1.0245 O   0  0  0  0  0  2           0  0  0
   -0.6719   -0.0000    1.1710 N   0  0  0  0  0  3           0  0  0
   -0.6198    0.0005   -1.2019 N   0  0  0  0  0  3           0  0  0
    6.2193    1.3964   -4.1506 N   0  0  0  0  0  3           0  0  0
    1.4050    0.0000    0.0000 N   0  0  0  0  0  3           0  0  0
   -2.5675    0.0048   -2.5074 N   0  0  0  0  0  3           0  0  0
    4.2101   -0.0231   -3.1287 C   0  0  0  0  0  4           0  0  0
   -2.0236   -0.0073    1.1197 C   0  0  0  0  0  4           0  0  0
    0.0000   -0.0000    0.0000 C   0  0  0  0  0  4           0  0  0
   -1.9759    0.0186   -1.2467 C   0  0  0  0  0  4           0  0  0
    2.3172    0.0000   -1.0582 C   0  0  0  0  0  4           0  0  0
   -2.7318   -0.0058   -0.0763 C   0  0  0  0  0  4           0  0  0
    2.9720    0.5806   -3.3341 C   0  0  0  0  0  4           0  0  0
    4.5149   -0.6285   -1.9129 C   0  0  0  0  0  4           0  0  0
    2.0331    0.5921   -2.2992 C   0  0  0  0  0  4           0  0  0
    3.5697   -0.6126   -0.8849 C   0  0  0  0  0  4           0  0  0
   -4.1983   -0.0428   -0.1167 C   0  0  0  0  0  4           0  0  0
   -1.9463   -0.0433    3.5009 C   0  0  1  0  0  4           0  0  0
   -2.7545    0.6642    4.5844 C   0  0  0  0  0  4           0  0  0
   -1.6555   -1.4856    3.9079 C   0  0  0  0  0  4           0  0  0
  1  2  2  0     0  0
  1  3  2  0     0  0
  1  8  1  0     0  0
  1 11  1  0     0  0
  4 12  1  0     0  0
  4 22  1  0     0  0
  5 21  2  0     0  0
  6 12  2  0     0  0
  6 13  1  0     0  0
  7 13  2  0     0  0
  7 14  1  0     0  0
  9 13  1  0     0  0
  9 15  1  0     0  0
 10 14  1  0     0  0
 11 17  1  0     0  0
 11 18  2  0     0  0
 12 16  1  0     0  0
 14 16  2  0     0  0
 15 19  1  0     0  0
 15 20  2  0     0  0
 16 21  1  0     0  0
 17 19  2  0     0  0
 18 20  1  0     0  0
 22 23  1  0     0  0
 22 24  1  0     0  0
M  END
> <Compound >
19

> <standard_type>
pIC50

> <# Confs.>
25

> <canonical_smiles>
O=S(C(C=C1)=CC=C1NC2=NC(N)=C(C([H])=O)C(OC(C)C)=N2)(N)=O

> <standard_relation>
=

> <predicted_activity_value>
7.131355561605174

> <actual_activity_value>
7.585026652029182

> <Publication ID>
nan

> <standard_units>
nM

> hash
7438502009623155154

$$$$
19_
XXILIB    08252103453D 0   0.00000     0.00000

 24 25  0     1  0            999 V2000
    5.3842    0.0686   -4.4444 S   0  0  1  0  0  6           0  0  0
    6.2587    1.2048   -4.2285 O   0  0  0  0  0  2           0  0  0
    4.6654   -0.0905   -5.6933 O   0  0  0  0  0  2           0  0  0
   -2.7352   -0.0298    2.3098 O   0  0  0  0  0  2           0  0  0
   -4.8357    0.4749   -1.0245 O   0  0  0  0  0  2           0  0  0
   -0.6719   -0.0000    1.1710 N   0  0  0  0  0  3           0  0  0
   -0.6198    0.0005   -1.2019 N   0  0  0  0  0  3           0  0  0
    6.2319   -1.3685   -4.0939 N   0  0  0  0  0  3           0  0  0
    1.4050   -0.0000    0.0000 N   0  0  0  0  0  3           0  0  0
   -2.5675    0.0048   -2.5074 N   0  0  0  0  0  3           0  0  0
    4.1943    0.0593   -3.1424 C   0  0  0  0  0  4           0  0  0
   -2.0236   -0.0073    1.1197 C   0  0  0  0  0  4           0  0  0
    0.0000   -0.0000    0.0000 C   0  0  0  0  0  4           0  0  0
   -1.9759    0.0186   -1.2467 C   0  0  0  0  0  4           0  0  0
    2.3172    0.0000   -1.0582 C   0  0  0  0  0  4           0  0  0
   -2.7318   -0.0058   -0.0763 C   0  0  0  0  0  4           0  0  0
    2.9661   -0.5672   -3.3392 C   0  0  0  0  0  4           0  0  0
    4.5081    0.6440   -1.9187 C   0  0  0  0  0  4           0  0  0
    2.0331   -0.5921   -2.2992 C   0  0  0  0  0  4           0  0  0
    3.5694    0.6133   -0.8852 C   0  0  0  0  0  4           0  0  0
   -4.1983   -0.0428   -0.1167 C   0  0  0  0  0  4           0  0  0
   -1.9463   -0.0433    3.5009 C   0  0  1  0  0  4           0  0  0
   -2.7545    0.6642    4.5844 C   0  0  0  0  0  4           0  0  0
   -1.6555   -1.4856    3.9079 C   0  0  0  0  0  4           0  0  0
  1  2  2  0     0  0
  1  3  2  0     0  0
  1  8  1  0     0  0
  1 11  1  0     0  0
  4 12  1  0     0  0
  4 22  1  0     0  0
  5 21  2  0     0  0
  6 12  2  0     0  0
  6 13  1  0     0  0
  7 13  2  0     0  0
  7 14  1  0     0  0
  9 13  1  0     0  0
  9 15  1  0     0  0
 10 14  1  0     0  0
 11 17  1  0     0  0
 11 18  2  0     0  0
 12 16  1  0     0  0
 14 16  2  0     0  0
 15 19  1  0     0  0
 15 20  2  0     0  0
 16 21  1  0     0  0
 17 19  2  0     0  0
 18 20  1  0     0  0
 22 23  1  0     0  0
 22 24  1  0     0  0
M  END
> <Compound >
19

> <standard_type>
pIC50

> <# Confs.>
25

> <canonical_smiles>
O=S(C(C=C1)=CC=C1NC2=NC(N)=C(C([H])=O)C(OC(C)C)=N2)(N)=O

> <standard_relation>
=

> <predicted_activity_value>
7.131355561605174

> <actual_activity_value>
7.585026652029182

> <Publication ID>
nan

> <standard_units>
nM

> hash
7438502009623155154

$$$$
19_
XXILIB    08252103453D 0   0.00000     0.00000

 24 25  0     1  0            999 V2000
    5.3989    2.2129    3.8398 S   0  0  1  0  0  6           0  0  0
    6.6221    1.4504    3.6835 O   0  0  0  0  0  2           0  0  0
    4.7578    2.3343    5.1344 O   0  0  0  0  0  2           0  0  0
   -2.7352   -0.0298    2.3098 O   0  0  0  0  0  2           0  0  0
   -4.8357    0.4749   -1.0245 O   0  0  0  0  0  2           0  0  0
   -0.6719   -0.0000    1.1710 N   0  0  0  0  0  3           0  0  0
   -0.6198    0.0005   -1.2019 N   0  0  0  0  0  3           0  0  0
    5.6139    3.7653    3.1685 N   0  0  0  0  0  3           0  0  0
    1.4050    0.0000    0.0000 N   0  0  0  0  0  3           0  0  0
   -2.5675    0.0048   -2.5074 N   0  0  0  0  0  3           0  0  0
    4.2106    1.5461    2.7197 C   0  0  0  0  0  4           0  0  0
   -2.0236   -0.0073    1.1197 C   0  0  0  0  0  4           0  0  0
    0.0000   -0.0000    0.0000 C   0  0  0  0  0  4           0  0  0
   -1.9759    0.0186   -1.2467 C   0  0  0  0  0  4           0  0  0
    2.3172    0.5291    0.9164 C   0  0  0  0  0  4           0  0  0
   -2.7318   -0.0058   -0.0763 C   0  0  0  0  0  4           0  0  0
    2.8526    1.7118    2.9804 C   0  0  0  0  0  4           0  0  0
    4.6406    0.8945    1.5672 C   0  0  0  0  0  4           0  0  0
    1.9130    1.2014    2.0809 C   0  0  0  0  0  4           0  0  0
    3.6940    0.3886    0.6738 C   0  0  0  0  0  4           0  0  0
   -4.1983   -0.0428   -0.1167 C   0  0  0  0  0  4           0  0  0
   -1.9463   -0.0433    3.5009 C   0  0  1  0  0  4           0  0  0
   -1.7064    1.4099    3.8987 C   0  0  0  0  0  4           0  0  0
   -2.6971   -0.7822    4.6058 C   0  0  0  0  0  4           0  0  0
  1  2  2  0     0  0
  1  3  2  0     0  0
  1  8  1  0     0  0
  1 11  1  0     0  0
  4 12  1  0     0  0
  4 22  1  0     0  0
  5 21  2  0     0  0
  6 12  2  0     0  0
  6 13  1  0     0  0
  7 13  2  0     0  0
  7 14  1  0     0  0
  9 13  1  0     0  0
  9 15  1  0     0  0
 10 14  1  0     0  0
 11 17  1  0     0  0
 11 18  2  0     0  0
 12 16  1  0     0  0
 14 16  2  0     0  0
 15 19  1  0     0  0
 15 20  2  0     0  0
 16 21  1  0     0  0
 17 19  2  0     0  0
 18 20  1  0     0  0
 22 23  1  0     0  0
 22 24  1  0     0  0
M  END
> <Compound >
19

> <standard_type>
pIC50

> <# Confs.>
25

> <canonical_smiles>
O=S(C(C=C1)=CC=C1NC2=NC(N)=C(C([H])=O)C(OC(C)C)=N2)(N)=O

> <standard_relation>
=

> <predicted_activity_value>
7.131355561605174

> <actual_activity_value>
7.585026652029182

> <Publication ID>
nan

> <standard_units>
nM

> hash
7438502009623155154

$$$$
19_
XXILIB    08252103453D 0   0.00000     0.00000

 24 25  0     1  0            999 V2000
    5.3989    2.2129    3.8398 S   0  0  1  0  0  6           0  0  0
    4.7639    3.3056    4.5505 O   0  0  0  0  0  2           0  0  0
    6.6275    2.4212    3.0990 O   0  0  0  0  0  2           0  0  0
   -2.7352   -0.0298    2.3098 O   0  0  0  0  0  2           0  0  0
   -4.8357    0.4749   -1.0245 O   0  0  0  0  0  2           0  0  0
   -0.6719   -0.0000    1.1710 N   0  0  0  0  0  3           0  0  0
   -0.6198    0.0005   -1.2019 N   0  0  0  0  0  3           0  0  0
    5.5954    0.8915    4.8990 N   0  0  0  0  0  3           0  0  0
    1.4050    0.0000    0.0000 N   0  0  0  0  0  3           0  0  0
   -2.5675    0.0048   -2.5074 N   0  0  0  0  0  3           0  0  0
    4.2106    1.5461    2.7197 C   0  0  0  0  0  4           0  0  0
   -2.0236   -0.0073    1.1197 C   0  0  0  0  0  4           0  0  0
    0.0000   -0.0000    0.0000 C   0  0  0  0  0  4           0  0  0
   -1.9759    0.0186   -1.2467 C   0  0  0  0  0  4           0  0  0
    2.3172    0.5291    0.9164 C   0  0  0  0  0  4           0  0  0
   -2.7318   -0.0058   -0.0763 C   0  0  0  0  0  4           0  0  0
    2.8526    1.7118    2.9804 C   0  0  0  0  0  4           0  0  0
    4.6406    0.8945    1.5672 C   0  0  0  0  0  4           0  0  0
    1.9130    1.2014    2.0809 C   0  0  0  0  0  4           0  0  0
    3.6940    0.3886    0.6738 C   0  0  0  0  0  4           0  0  0
   -4.1983   -0.0428   -0.1167 C   0  0  0  0  0  4           0  0  0
   -1.9463   -0.0433    3.5009 C   0  0  1  0  0  4           0  0  0
   -1.7064    1.4099    3.8987 C   0  0  0  0  0  4           0  0  0
   -2.6971   -0.7822    4.6058 C   0  0  0  0  0  4           0  0  0
  1  2  2  0     0  0
  1  3  2  0     0  0
  1  8  1  0     0  0
  1 11  1  0     0  0
  4 12  1  0     0  0
  4 22  1  0     0  0
  5 21  2  0     0  0
  6 12  2  0     0  0
  6 13  1  0     0  0
  7 13  2  0     0  0
  7 14  1  0     0  0
  9 13  1  0     0  0
  9 15  1  0     0  0
 10 14  1  0     0  0
 11 17  1  0     0  0
 11 18  2  0     0  0
 12 16  1  0     0  0
 14 16  2  0     0  0
 15 19  1  0     0  0
 15 20  2  0     0  0
 16 21  1  0     0  0
 17 19  2  0     0  0
 18 20  1  0     0  0
 22 23  1  0     0  0
 22 24  1  0     0  0
M  END
> <Compound >
19

> <standard_type>
pIC50

> <# Confs.>
25

> <canonical_smiles>
O=S(C(C=C1)=CC=C1NC2=NC(N)=C(C([H])=O)C(OC(C)C)=N2)(N)=O

> <standard_relation>
=

> <predicted_activity_value>
7.131355561605174

> <actual_activity_value>
7.585026652029182

> <Publication ID>
nan

> <standard_units>
nM

> hash
7438502009623155154

$$$$
19_
XXILIB    08252103453D 0   0.00000     0.00000

 24 25  0     1  0            999 V2000
    5.3989   -2.2189    3.8363 S   0  0  1  0  0  6           0  0  0
    4.7639   -2.2881    5.1379 O   0  0  0  0  0  2           0  0  0
    6.6275   -1.4732    3.6464 O   0  0  0  0  0  2           0  0  0
   -2.7352   -0.0298    2.3098 O   0  0  0  0  0  2           0  0  0
   -4.8357    0.4749   -1.0245 O   0  0  0  0  0  2           0  0  0
   -0.6719   -0.0000    1.1710 N   0  0  0  0  0  3           0  0  0
   -0.6198    0.0005   -1.2019 N   0  0  0  0  0  3           0  0  0
    5.5954   -3.7969    3.2216 N   0  0  0  0  0  3           0  0  0
    1.4050    0.0000    0.0000 N   0  0  0  0  0  3           0  0  0
   -2.5675    0.0048   -2.5074 N   0  0  0  0  0  3           0  0  0
    4.2106   -1.5823    2.6988 C   0  0  0  0  0  4           0  0  0
   -2.0236   -0.0073    1.1197 C   0  0  0  0  0  4           0  0  0
    0.0000   -0.0000    0.0000 C   0  0  0  0  0  4           0  0  0
   -1.9759    0.0186   -1.2467 C   0  0  0  0  0  4           0  0  0
    2.3172   -0.5291    0.9164 C   0  0  0  0  0  4           0  0  0
   -2.7318   -0.0058   -0.0763 C   0  0  0  0  0  4           0  0  0
    2.8526   -1.7252    2.9727 C   0  0  0  0  0  4           0  0  0
    4.6406   -0.9100    1.5583 C   0  0  0  0  0  4           0  0  0
    1.9130   -1.2014    2.0809 C   0  0  0  0  0  4           0  0  0
    3.6940   -0.3893    0.6734 C   0  0  0  0  0  4           0  0  0
   -4.1983   -0.0428   -0.1167 C   0  0  0  0  0  4           0  0  0
   -1.9463   -0.0433    3.5009 C   0  0  1  0  0  4           0  0  0
   -1.7064    1.4099    3.8987 C   0  0  0  0  0  4           0  0  0
   -2.6971   -0.7822    4.6058 C   0  0  0  0  0  4           0  0  0
  1  2  2  0     0  0
  1  3  2  0     0  0
  1  8  1  0     0  0
  1 11  1  0     0  0
  4 12  1  0     0  0
  4 22  1  0     0  0
  5 21  2  0     0  0
  6 12  2  0     0  0
  6 13  1  0     0  0
  7 13  2  0     0  0
  7 14  1  0     0  0
  9 13  1  0     0  0
  9 15  1  0     0  0
 10 14  1  0     0  0
 11 17  1  0     0  0
 11 18  2  0     0  0
 12 16  1  0     0  0
 14 16  2  0     0  0
 15 19  1  0     0  0
 15 20  2  0     0  0
 16 21  1  0     0  0
 17 19  2  0     0  0
 18 20  1  0     0  0
 22 23  1  0     0  0
 22 24  1  0     0  0
M  END
> <Compound >
19

> <standard_type>
pIC50

> <# Confs.>
25

> <canonical_smiles>
O=S(C(C=C1)=CC=C1NC2=NC(N)=C(C([H])=O)C(OC(C)C)=N2)(N)=O

> <standard_relation>
=

> <predicted_activity_value>
7.131355561605174

> <actual_activity_value>
7.585026652029182

> <Publication ID>
nan

> <standard_units>
nM

> hash
7438502009623155154

$$$$
19_
XXILIB    08252103453D 0   0.00000     0.00000

 24 25  0     1  0            999 V2000
    5.3842   -0.0686    4.4444 S   0  0  1  0  0  6           0  0  0
    5.0988    1.0629    5.3049 O   0  0  0  0  0  2           0  0  0
    6.6915   -0.2324    3.8393 O   0  0  0  0  0  2           0  0  0
   -2.7352   -0.0298    2.3098 O   0  0  0  0  0  2           0  0  0
   -4.8357    0.4749   -1.0245 O   0  0  0  0  0  2           0  0  0
   -0.6719   -0.0000    1.1710 N   0  0  0  0  0  3           0  0  0
   -0.6198    0.0005   -1.2019 N   0  0  0  0  0  3           0  0  0
    4.9487   -1.5091    5.2459 N   0  0  0  0  0  3           0  0  0
    1.4050    0.0000   -0.0000 N   0  0  0  0  0  3           0  0  0
   -2.5675    0.0048   -2.5074 N   0  0  0  0  0  3           0  0  0
    4.1943   -0.0593    3.1424 C   0  0  0  0  0  4           0  0  0
   -2.0236   -0.0073    1.1197 C   0  0  0  0  0  4           0  0  0
    0.0000   -0.0000    0.0000 C   0  0  0  0  0  4           0  0  0
   -1.9759    0.0186   -1.2467 C   0  0  0  0  0  4           0  0  0
    2.3172    0.0000    1.0582 C   0  0  0  0  0  4           0  0  0
   -2.7318   -0.0058   -0.0763 C   0  0  0  0  0  4           0  0  0
    2.9661    0.5672    3.3392 C   0  0  0  0  0  4           0  0  0
    4.5081   -0.6440    1.9187 C   0  0  0  0  0  4           0  0  0
    2.0331    0.5921    2.2992 C   0  0  0  0  0  4           0  0  0
    3.5694   -0.6133    0.8852 C   0  0  0  0  0  4           0  0  0
   -4.1983   -0.0428   -0.1167 C   0  0  0  0  0  4           0  0  0
   -2.5059    1.0741    3.1874 C   0  0  1  0  0  4           0  0  0
   -3.8465    1.7731    3.3916 C   0  0  0  0  0  4           0  0  0
   -1.9602    0.5663    4.5196 C   0  0  0  0  0  4           0  0  0
  1  2  2  0     0  0
  1  3  2  0     0  0
  1  8  1  0     0  0
  1 11  1  0     0  0
  4 12  1  0     0  0
  4 22  1  0     0  0
  5 21  2  0     0  0
  6 12  2  0     0  0
  6 13  1  0     0  0
  7 13  2  0     0  0
  7 14  1  0     0  0
  9 13  1  0     0  0
  9 15  1  0     0  0
 10 14  1  0     0  0
 11 17  1  0     0  0
 11 18  2  0     0  0
 12 16  1  0     0  0
 14 16  2  0     0  0
 15 19  1  0     0  0
 15 20  2  0     0  0
 16 21  1  0     0  0
 17 19  2  0     0  0
 18 20  1  0     0  0
 22 23  1  0     0  0
 22 24  1  0     0  0
M  END
> <Compound >
19

> <standard_type>
pIC50

> <# Confs.>
25

> <canonical_smiles>
O=S(C(C=C1)=CC=C1NC2=NC(N)=C(C([H])=O)C(OC(C)C)=N2)(N)=O

> <standard_relation>
=

> <predicted_activity_value>
7.131355561605174

> <actual_activity_value>
7.585026652029182

> <Publication ID>
nan

> <standard_units>
nM

> hash
7438502009623155154

$$$$
19_
XXILIB    08252103453D 0   0.00000     0.00000

 24 25  0     1  0            999 V2000
    5.3989   -2.2189    3.8363 S   0  0  1  0  0  6           0  0  0
    6.6221   -2.4648    3.0978 O   0  0  0  0  0  2           0  0  0
    4.7578   -3.2794    4.5888 O   0  0  0  0  0  2           0  0  0
   -2.7352   -0.0298    2.3098 O   0  0  0  0  0  2           0  0  0
   -4.8357    0.4749   -1.0245 O   0  0  0  0  0  2           0  0  0
   -0.6719   -0.0000    1.1710 N   0  0  0  0  0  3           0  0  0
   -0.6198    0.0005   -1.2019 N   0  0  0  0  0  3           0  0  0
    5.6139   -0.8613    4.8451 N   0  0  0  0  0  3           0  0  0
    1.4050    0.0000    0.0000 N   0  0  0  0  0  3           0  0  0
   -2.5675    0.0048   -2.5074 N   0  0  0  0  0  3           0  0  0
    4.2106   -1.5823    2.6988 C   0  0  0  0  0  4           0  0  0
   -2.0236   -0.0073    1.1197 C   0  0  0  0  0  4           0  0  0
    0.0000   -0.0000    0.0000 C   0  0  0  0  0  4           0  0  0
   -1.9759    0.0186   -1.2467 C   0  0  0  0  0  4           0  0  0
    2.3172   -0.5291    0.9164 C   0  0  0  0  0  4           0  0  0
   -2.7318   -0.0058   -0.0763 C   0  0  0  0  0  4           0  0  0
    2.8526   -1.7252    2.9727 C   0  0  0  0  0  4           0  0  0
    4.6406   -0.9100    1.5583 C   0  0  0  0  0  4           0  0  0
    1.9130   -1.2014    2.0809 C   0  0  0  0  0  4           0  0  0
    3.6940   -0.3893    0.6734 C   0  0  0  0  0  4           0  0  0
   -4.1983   -0.0428   -0.1167 C   0  0  0  0  0  4           0  0  0
   -1.9463   -0.0433    3.5009 C   0  0  1  0  0  4           0  0  0
   -1.7064    1.4099    3.8987 C   0  0  0  0  0  4           0  0  0
   -2.6971   -0.7822    4.6058 C   0  0  0  0  0  4           0  0  0
  1  2  2  0     0  0
  1  3  2  0     0  0
  1  8  1  0     0  0
  1 11  1  0     0  0
  4 12  1  0     0  0
  4 22  1  0     0  0
  5 21  2  0     0  0
  6 12  2  0     0  0
  6 13  1  0     0  0
  7 13  2  0     0  0
  7 14  1  0     0  0
  9 13  1  0     0  0
  9 15  1  0     0  0
 10 14  1  0     0  0
 11 17  1  0     0  0
 11 18  2  0     0  0
 12 16  1  0     0  0
 14 16  2  0     0  0
 15 19  1  0     0  0
 15 20  2  0     0  0
 16 21  1  0     0  0
 17 19  2  0     0  0
 18 20  1  0     0  0
 22 23  1  0     0  0
 22 24  1  0     0  0
M  END
> <Compound >
19

> <standard_type>
pIC50

> <# Confs.>
25

> <canonical_smiles>
O=S(C(C=C1)=CC=C1NC2=NC(N)=C(C([H])=O)C(OC(C)C)=N2)(N)=O

> <standard_relation>
=

> <predicted_activity_value>
7.131355561605174

> <actual_activity_value>
7.585026652029182

> <Publication ID>
nan

> <standard_units>
nM

> hash
7438502009623155154

$$$$
19_
XXILIB    08252103453D 0   0.00000     0.00000

 24 25  0     1  0            999 V2000
    5.3989   -0.0034    4.4318 S   0  0  1  0  0  6           0  0  0
    6.6221   -0.5857    3.9152 O   0  0  0  0  0  2           0  0  0
    4.7578   -0.5456    5.6137 O   0  0  0  0  0  2           0  0  0
   -2.7352   -0.0298    2.3098 O   0  0  0  0  0  2           0  0  0
   -4.8357    0.4749   -1.0245 O   0  0  0  0  0  2           0  0  0
   -0.6719   -0.0000    1.1710 N   0  0  0  0  0  3           0  0  0
   -0.6198    0.0005   -1.2019 N   0  0  0  0  0  3           0  0  0
    5.6139    1.6766    4.6267 N   0  0  0  0  0  3           0  0  0
    1.4050    0.0000    0.0000 N   0  0  0  0  0  3           0  0  0
   -2.5675    0.0048   -2.5074 N   0  0  0  0  0  3           0  0  0
    4.2106   -0.0209    3.1284 C   0  0  0  0  0  4           0  0  0
   -2.0236   -0.0073    1.1197 C   0  0  0  0  0  4           0  0  0
    0.0000   -0.0000    0.0000 C   0  0  0  0  0  4           0  0  0
   -1.9759    0.0186   -1.2467 C   0  0  0  0  0  4           0  0  0
    2.3172   -0.0000    1.0582 C   0  0  0  0  0  4           0  0  0
   -2.7318   -0.0058   -0.0763 C   0  0  0  0  0  4           0  0  0
    2.8526   -0.0077    3.4371 C   0  0  0  0  0  4           0  0  0
    4.6406   -0.0090    1.8045 C   0  0  0  0  0  4           0  0  0
    1.9130   -0.0000    2.4028 C   0  0  0  0  0  4           0  0  0
    3.6940   -0.0004    0.7778 C   0  0  0  0  0  4           0  0  0
   -4.1983   -0.0428   -0.1167 C   0  0  0  0  0  4           0  0  0
   -2.5059    1.0741    3.1874 C   0  0  1  0  0  4           0  0  0
   -3.8465    1.7731    3.3916 C   0  0  0  0  0  4           0  0  0
   -1.9602    0.5663    4.5196 C   0  0  0  0  0  4           0  0  0
  1  2  2  0     0  0
  1  3  2  0     0  0
  1  8  1  0     0  0
  1 11  1  0     0  0
  4 12  1  0     0  0
  4 22  1  0     0  0
  5 21  2  0     0  0
  6 12  2  0     0  0
  6 13  1  0     0  0
  7 13  2  0     0  0
  7 14  1  0     0  0
  9 13  1  0     0  0
  9 15  1  0     0  0
 10 14  1  0     0  0
 11 17  1  0     0  0
 11 18  2  0     0  0
 12 16  1  0     0  0
 14 16  2  0     0  0
 15 19  1  0     0  0
 15 20  2  0     0  0
 16 21  1  0     0  0
 17 19  2  0     0  0
 18 20  1  0     0  0
 22 23  1  0     0  0
 22 24  1  0     0  0
M  END
> <Compound >
19

> <standard_type>
pIC50

> <# Confs.>
25

> <canonical_smiles>
O=S(C(C=C1)=CC=C1NC2=NC(N)=C(C([H])=O)C(OC(C)C)=N2)(N)=O

> <standard_relation>
=

> <predicted_activity_value>
7.131355561605174

> <actual_activity_value>
7.585026652029182

> <Publication ID>
nan

> <standard_units>
nM

> hash
7438502009623155154

$$$$
19_
XXILIB    08252103453D 0   0.00000     0.00000

 24 25  0     1  0            999 V2000
    5.3868   -2.1668    3.8784 S   0  0  1  0  0  6           0  0  0
    4.6538   -2.8835    4.9037 O   0  0  0  0  0  2           0  0  0
    6.2769   -1.0761    4.2247 O   0  0  0  0  0  2           0  0  0
   -2.7352   -0.0298    2.3098 O   0  0  0  0  0  2           0  0  0
   -4.8357    0.4749   -1.0245 O   0  0  0  0  0  2           0  0  0
   -0.6719   -0.0000    1.1710 N   0  0  0  0  0  3           0  0  0
   -0.6198    0.0005   -1.2019 N   0  0  0  0  0  3           0  0  0
    6.2193   -3.2846    2.8964 N   0  0  0  0  0  3           0  0  0
    1.4050    0.0000    0.0000 N   0  0  0  0  0  3           0  0  0
   -2.5675    0.0048   -2.5074 N   0  0  0  0  0  3           0  0  0
    4.2101   -1.5444    2.7211 C   0  0  0  0  0  4           0  0  0
   -2.0236   -0.0073    1.1197 C   0  0  0  0  0  4           0  0  0
    0.0000   -0.0000    0.0000 C   0  0  0  0  0  4           0  0  0
   -1.9759    0.0186   -1.2467 C   0  0  0  0  0  4           0  0  0
    2.3172   -0.5291    0.9164 C   0  0  0  0  0  4           0  0  0
   -2.7318   -0.0058   -0.0763 C   0  0  0  0  0  4           0  0  0
    2.9720   -2.1699    2.5972 C   0  0  0  0  0  4           0  0  0
    4.5149   -0.4122    1.9709 C   0  0  0  0  0  4           0  0  0
    2.0331   -1.6624    1.6952 C   0  0  0  0  0  4           0  0  0
    3.5697    0.0881    1.0727 C   0  0  0  0  0  4           0  0  0
   -4.1983   -0.0428   -0.1167 C   0  0  0  0  0  4           0  0  0
   -2.0984    0.6013    3.4222 C   0  0  1  0  0  4           0  0  0
   -3.2023    1.1423    4.3257 C   0  0  0  0  0  4           0  0  0
   -1.2463   -0.4190    4.1728 C   0  0  0  0  0  4           0  0  0
  1  2  2  0     0  0
  1  3  2  0     0  0
  1  8  1  0     0  0
  1 11  1  0     0  0
  4 12  1  0     0  0
  4 22  1  0     0  0
  5 21  2  0     0  0
  6 12  2  0     0  0
  6 13  1  0     0  0
  7 13  2  0     0  0
  7 14  1  0     0  0
  9 13  1  0     0  0
  9 15  1  0     0  0
 10 14  1  0     0  0
 11 17  1  0     0  0
 11 18  2  0     0  0
 12 16  1  0     0  0
 14 16  2  0     0  0
 15 19  1  0     0  0
 15 20  2  0     0  0
 16 21  1  0     0  0
 17 19  2  0     0  0
 18 20  1  0     0  0
 22 23  1  0     0  0
 22 24  1  0     0  0
M  END
> <Compound >
19

> <standard_type>
pIC50

> <# Confs.>
25

> <canonical_smiles>
O=S(C(C=C1)=CC=C1NC2=NC(N)=C(C([H])=O)C(OC(C)C)=N2)(N)=O

> <standard_relation>
=

> <predicted_activity_value>
7.131355561605174

> <actual_activity_value>
7.585026652029182

> <Publication ID>
nan

> <standard_units>
nM

> hash
7438502009623155154

$$$$
19_
XXILIB    08252103453D 0   0.00000     0.00000

 24 25  0     1  0            999 V2000
    5.3842   -0.0686    4.4444 S   0  0  1  0  0  6           0  0  0
    6.2587   -1.2048    4.2285 O   0  0  0  0  0  2           0  0  0
    4.6654    0.0905    5.6933 O   0  0  0  0  0  2           0  0  0
   -2.7352   -0.0298    2.3098 O   0  0  0  0  0  2           0  0  0
   -4.8357    0.4749   -1.0245 O   0  0  0  0  0  2           0  0  0
   -0.6719   -0.0000    1.1710 N   0  0  0  0  0  3           0  0  0
   -0.6198    0.0005   -1.2019 N   0  0  0  0  0  3           0  0  0
    6.2319    1.3685    4.0939 N   0  0  0  0  0  3           0  0  0
    1.4050    0.0000   -0.0000 N   0  0  0  0  0  3           0  0  0
   -2.5675    0.0048   -2.5074 N   0  0  0  0  0  3           0  0  0
    4.1943   -0.0593    3.1424 C   0  0  0  0  0  4           0  0  0
   -2.0236   -0.0073    1.1197 C   0  0  0  0  0  4           0  0  0
    0.0000   -0.0000    0.0000 C   0  0  0  0  0  4           0  0  0
   -1.9759    0.0186   -1.2467 C   0  0  0  0  0  4           0  0  0
    2.3172    0.0000    1.0582 C   0  0  0  0  0  4           0  0  0
   -2.7318   -0.0058   -0.0763 C   0  0  0  0  0  4           0  0  0
    2.9661    0.5672    3.3392 C   0  0  0  0  0  4           0  0  0
    4.5081   -0.6440    1.9187 C   0  0  0  0  0  4           0  0  0
    2.0331    0.5921    2.2992 C   0  0  0  0  0  4           0  0  0
    3.5694   -0.6133    0.8852 C   0  0  0  0  0  4           0  0  0
   -4.1983   -0.0428   -0.1167 C   0  0  0  0  0  4           0  0  0
   -2.4926   -1.1572    3.1532 C   0  0  1  0  0  4           0  0  0
   -2.6977   -0.6951    4.5927 C   0  0  0  0  0  4           0  0  0
   -3.4706   -2.2772    2.8075 C   0  0  0  0  0  4           0  0  0
  1  2  2  0     0  0
  1  3  2  0     0  0
  1  8  1  0     0  0
  1 11  1  0     0  0
  4 12  1  0     0  0
  4 22  1  0     0  0
  5 21  2  0     0  0
  6 12  2  0     0  0
  6 13  1  0     0  0
  7 13  2  0     0  0
  7 14  1  0     0  0
  9 13  1  0     0  0
  9 15  1  0     0  0
 10 14  1  0     0  0
 11 17  1  0     0  0
 11 18  2  0     0  0
 12 16  1  0     0  0
 14 16  2  0     0  0
 15 19  1  0     0  0
 15 20  2  0     0  0
 16 21  1  0     0  0
 17 19  2  0     0  0
 18 20  1  0     0  0
 22 23  1  0     0  0
 22 24  1  0     0  0
M  END
> <Compound >
19

> <standard_type>
pIC50

> <# Confs.>
25

> <canonical_smiles>
O=S(C(C=C1)=CC=C1NC2=NC(N)=C(C([H])=O)C(OC(C)C)=N2)(N)=O

> <standard_relation>
=

> <predicted_activity_value>
7.131355561605174

> <actual_activity_value>
7.585026652029182

> <Publication ID>
nan

> <standard_units>
nM

> hash
7438502009623155154

$$$$
19_
XXILIB    08252103453D 0   0.00000     0.00000

 24 25  0     1  0            999 V2000
    5.3842   -0.0686    4.4444 S   0  0  1  0  0  6           0  0  0
    5.0988    1.0629    5.3049 O   0  0  0  0  0  2           0  0  0
    6.6915   -0.2324    3.8393 O   0  0  0  0  0  2           0  0  0
   -2.7352   -0.0298    2.3098 O   0  0  0  0  0  2           0  0  0
   -4.8186   -0.0414   -1.1719 O   0  0  0  0  0  2           0  0  0
   -0.6719   -0.0000    1.1710 N   0  0  0  0  0  3           0  0  0
   -0.6198    0.0005   -1.2019 N   0  0  0  0  0  3           0  0  0
    4.9487   -1.5091    5.2459 N   0  0  0  0  0  3           0  0  0
    1.4050    0.0000   -0.0000 N   0  0  0  0  0  3           0  0  0
   -2.5675    0.0048   -2.5074 N   0  0  0  0  0  3           0  0  0
    4.1943   -0.0593    3.1424 C   0  0  0  0  0  4           0  0  0
   -2.0236   -0.0073    1.1197 C   0  0  0  0  0  4           0  0  0
    0.0000   -0.0000    0.0000 C   0  0  0  0  0  4           0  0  0
   -1.9759    0.0186   -1.2467 C   0  0  0  0  0  4           0  0  0
    2.3172    0.0000    1.0582 C   0  0  0  0  0  4           0  0  0
   -2.7318   -0.0058   -0.0763 C   0  0  0  0  0  4           0  0  0
    2.9661    0.5672    3.3392 C   0  0  0  0  0  4           0  0  0
    4.5081   -0.6440    1.9187 C   0  0  0  0  0  4           0  0  0
    2.0331    0.5921    2.2992 C   0  0  0  0  0  4           0  0  0
    3.5694   -0.6133    0.8852 C   0  0  0  0  0  4           0  0  0
   -4.1983   -0.0428   -0.1167 C   0  0  0  0  0  4           0  0  0
   -2.4926   -1.1572    3.1532 C   0  0  1  0  0  4           0  0  0
   -1.9557   -0.6219    4.4771 C   0  0  0  0  0  4           0  0  0
   -3.7949   -1.9221    3.3755 C   0  0  0  0  0  4           0  0  0
  1  2  2  0     0  0
  1  3  2  0     0  0
  1  8  1  0     0  0
  1 11  1  0     0  0
  4 12  1  0     0  0
  4 22  1  0     0  0
  5 21  2  0     0  0
  6 12  2  0     0  0
  6 13  1  0     0  0
  7 13  2  0     0  0
  7 14  1  0     0  0
  9 13  1  0     0  0
  9 15  1  0     0  0
 10 14  1  0     0  0
 11 17  1  0     0  0
 11 18  2  0     0  0
 12 16  1  0     0  0
 14 16  2  0     0  0
 15 19  1  0     0  0
 15 20  2  0     0  0
 16 21  1  0     0  0
 17 19  2  0     0  0
 18 20  1  0     0  0
 22 23  1  0     0  0
 22 24  1  0     0  0
M  END
> <Compound >
19

> <standard_type>
pIC50

> <# Confs.>
25

> <canonical_smiles>
O=S(C(C=C1)=CC=C1NC2=NC(N)=C(C([H])=O)C(OC(C)C)=N2)(N)=O

> <standard_relation>
=

> <predicted_activity_value>
7.131355561605174

> <actual_activity_value>
7.585026652029182

> <Publication ID>
nan

> <standard_units>
nM

> hash
7438502009623155154

$$$$
19_
XXILIB    08252103453D 0   0.00000     0.00000

 24 25  0     1  0            999 V2000
    5.3868   -2.1668    3.8784 S   0  0  1  0  0  6           0  0  0
    6.7023   -1.7582    3.4260 O   0  0  0  0  0  2           0  0  0
    5.0786   -3.5653    4.1043 O   0  0  0  0  0  2           0  0  0
   -2.7352   -0.0298    2.3098 O   0  0  0  0  0  2           0  0  0
   -4.8357    0.4749   -1.0245 O   0  0  0  0  0  2           0  0  0
   -0.6719   -0.0000    1.1710 N   0  0  0  0  0  3           0  0  0
   -0.6198    0.0005   -1.2019 N   0  0  0  0  0  3           0  0  0
    4.9620   -1.2646    5.2613 N   0  0  0  0  0  3           0  0  0
    1.4050    0.0000    0.0000 N   0  0  0  0  0  3           0  0  0
   -2.5675    0.0048   -2.5074 N   0  0  0  0  0  3           0  0  0
    4.2101   -1.5444    2.7211 C   0  0  0  0  0  4           0  0  0
   -2.0236   -0.0073    1.1197 C   0  0  0  0  0  4           0  0  0
    0.0000   -0.0000    0.0000 C   0  0  0  0  0  4           0  0  0
   -1.9759    0.0186   -1.2467 C   0  0  0  0  0  4           0  0  0
    2.3172   -0.5291    0.9164 C   0  0  0  0  0  4           0  0  0
   -2.7318   -0.0058   -0.0763 C   0  0  0  0  0  4           0  0  0
    2.9720   -2.1699    2.5972 C   0  0  0  0  0  4           0  0  0
    4.5149   -0.4122    1.9709 C   0  0  0  0  0  4           0  0  0
    2.0331   -1.6624    1.6952 C   0  0  0  0  0  4           0  0  0
    3.5697    0.0881    1.0727 C   0  0  0  0  0  4           0  0  0
   -4.1983   -0.0428   -0.1167 C   0  0  0  0  0  4           0  0  0
   -2.0984    0.6013    3.4222 C   0  0  1  0  0  4           0  0  0
   -3.2023    1.1423    4.3257 C   0  0  0  0  0  4           0  0  0
   -1.2463   -0.4190    4.1728 C   0  0  0  0  0  4           0  0  0
  1  2  2  0     0  0
  1  3  2  0     0  0
  1  8  1  0     0  0
  1 11  1  0     0  0
  4 12  1  0     0  0
  4 22  1  0     0  0
  5 21  2  0     0  0
  6 12  2  0     0  0
  6 13  1  0     0  0
  7 13  2  0     0  0
  7 14  1  0     0  0
  9 13  1  0     0  0
  9 15  1  0     0  0
 10 14  1  0     0  0
 11 17  1  0     0  0
 11 18  2  0     0  0
 12 16  1  0     0  0
 14 16  2  0     0  0
 15 19  1  0     0  0
 15 20  2  0     0  0
 16 21  1  0     0  0
 17 19  2  0     0  0
 18 20  1  0     0  0
 22 23  1  0     0  0
 22 24  1  0     0  0
M  END
> <Compound >
19

> <standard_type>
pIC50

> <# Confs.>
25

> <canonical_smiles>
O=S(C(C=C1)=CC=C1NC2=NC(N)=C(C([H])=O)C(OC(C)C)=N2)(N)=O

> <standard_relation>
=

> <predicted_activity_value>
7.131355561605174

> <actual_activity_value>
7.585026652029182

> <Publication ID>
nan

> <standard_units>
nM

> hash
7438502009623155154

$$$$
19_
XXILIB    08252103453D 0   0.00000     0.00000

 24 25  0     1  0            999 V2000
    5.3868    0.0627    4.4422 S   0  0  1  0  0  6           0  0  0
    6.7023    0.1903    3.8461 O   0  0  0  0  0  2           0  0  0
    5.0786   -1.0355    5.3371 O   0  0  0  0  0  2           0  0  0
   -2.7352   -0.0298    2.3098 O   0  0  0  0  0  2           0  0  0
   -4.8357    0.4749   -1.0245 O   0  0  0  0  0  2           0  0  0
   -0.6719   -0.0000    1.1710 N   0  0  0  0  0  3           0  0  0
   -0.6198    0.0005   -1.2019 N   0  0  0  0  0  3           0  0  0
    4.9620    1.5355    5.1887 N   0  0  0  0  0  3           0  0  0
    1.4050    0.0000    0.0000 N   0  0  0  0  0  3           0  0  0
   -2.5675    0.0048   -2.5074 N   0  0  0  0  0  3           0  0  0
    4.2101    0.0231    3.1287 C   0  0  0  0  0  4           0  0  0
   -2.0236   -0.0073    1.1197 C   0  0  0  0  0  4           0  0  0
    0.0000   -0.0000    0.0000 C   0  0  0  0  0  4           0  0  0
   -1.9759    0.0186   -1.2467 C   0  0  0  0  0  4           0  0  0
    2.3172    0.0000    1.0582 C   0  0  0  0  0  4           0  0  0
   -2.7318   -0.0058   -0.0763 C   0  0  0  0  0  4           0  0  0
    2.9720   -0.5806    3.3341 C   0  0  0  0  0  4           0  0  0
    4.5149    0.6285    1.9129 C   0  0  0  0  0  4           0  0  0
    2.0331   -0.5921    2.2992 C   0  0  0  0  0  4           0  0  0
    3.5697    0.6126    0.8849 C   0  0  0  0  0  4           0  0  0
   -4.1983   -0.0428   -0.1167 C   0  0  0  0  0  4           0  0  0
   -2.4926   -1.1572    3.1532 C   0  0  1  0  0  4           0  0  0
   -1.9557   -0.6219    4.4771 C   0  0  0  0  0  4           0  0  0
   -3.7949   -1.9221    3.3755 C   0  0  0  0  0  4           0  0  0
  1  2  2  0     0  0
  1  3  2  0     0  0
  1  8  1  0     0  0
  1 11  1  0     0  0
  4 12  1  0     0  0
  4 22  1  0     0  0
  5 21  2  0     0  0
  6 12  2  0     0  0
  6 13  1  0     0  0
  7 13  2  0     0  0
  7 14  1  0     0  0
  9 13  1  0     0  0
  9 15  1  0     0  0
 10 14  1  0     0  0
 11 17  1  0     0  0
 11 18  2  0     0  0
 12 16  1  0     0  0
 14 16  2  0     0  0
 15 19  1  0     0  0
 15 20  2  0     0  0
 16 21  1  0     0  0
 17 19  2  0     0  0
 18 20  1  0     0  0
 22 23  1  0     0  0
 22 24  1  0     0  0
M  END
> <Compound >
19

> <standard_type>
pIC50

> <# Confs.>
25

> <canonical_smiles>
O=S(C(C=C1)=CC=C1NC2=NC(N)=C(C([H])=O)C(OC(C)C)=N2)(N)=O

> <standard_relation>
=

> <predicted_activity_value>
7.131355561605174

> <actual_activity_value>
7.585026652029182

> <Publication ID>
nan

> <standard_units>
nM

> hash
7438502009623155154

$$$$
19_
XXILIB    08252103453D 0   0.00000     0.00000

 24 25  0     1  0            999 V2000
    5.3868    0.0627    4.4422 S   0  0  1  0  0  6           0  0  0
    4.6538   -0.0453    5.6884 O   0  0  0  0  0  2           0  0  0
    6.2769    1.1804    4.1967 O   0  0  0  0  0  2           0  0  0
   -2.7352   -0.0298    2.3098 O   0  0  0  0  0  2           0  0  0
   -4.8357    0.4749   -1.0245 O   0  0  0  0  0  2           0  0  0
   -0.6719   -0.0000    1.1710 N   0  0  0  0  0  3           0  0  0
   -0.6198    0.0005   -1.2019 N   0  0  0  0  0  3           0  0  0
    6.2193   -1.3964    4.1506 N   0  0  0  0  0  3           0  0  0
    1.4050    0.0000    0.0000 N   0  0  0  0  0  3           0  0  0
   -2.5675    0.0048   -2.5074 N   0  0  0  0  0  3           0  0  0
    4.2101    0.0231    3.1287 C   0  0  0  0  0  4           0  0  0
   -2.0236   -0.0073    1.1197 C   0  0  0  0  0  4           0  0  0
    0.0000   -0.0000    0.0000 C   0  0  0  0  0  4           0  0  0
   -1.9759    0.0186   -1.2467 C   0  0  0  0  0  4           0  0  0
    2.3172    0.0000    1.0582 C   0  0  0  0  0  4           0  0  0
   -2.7318   -0.0058   -0.0763 C   0  0  0  0  0  4           0  0  0
    2.9720   -0.5806    3.3341 C   0  0  0  0  0  4           0  0  0
    4.5149    0.6285    1.9129 C   0  0  0  0  0  4           0  0  0
    2.0331   -0.5921    2.2992 C   0  0  0  0  0  4           0  0  0
    3.5697    0.6126    0.8849 C   0  0  0  0  0  4           0  0  0
   -4.1983   -0.0428   -0.1167 C   0  0  0  0  0  4           0  0  0
   -2.4926   -1.1572    3.1532 C   0  0  1  0  0  4           0  0  0
   -1.9557   -0.6219    4.4771 C   0  0  0  0  0  4           0  0  0
   -3.7949   -1.9221    3.3755 C   0  0  0  0  0  4           0  0  0
  1  2  2  0     0  0
  1  3  2  0     0  0
  1  8  1  0     0  0
  1 11  1  0     0  0
  4 12  1  0     0  0
  4 22  1  0     0  0
  5 21  2  0     0  0
  6 12  2  0     0  0
  6 13  1  0     0  0
  7 13  2  0     0  0
  7 14  1  0     0  0
  9 13  1  0     0  0
  9 15  1  0     0  0
 10 14  1  0     0  0
 11 17  1  0     0  0
 11 18  2  0     0  0
 12 16  1  0     0  0
 14 16  2  0     0  0
 15 19  1  0     0  0
 15 20  2  0     0  0
 16 21  1  0     0  0
 17 19  2  0     0  0
 18 20  1  0     0  0
 22 23  1  0     0  0
 22 24  1  0     0  0
M  END
> <Compound >
19

> <standard_type>
pIC50

> <# Confs.>
25

> <canonical_smiles>
O=S(C(C=C1)=CC=C1NC2=NC(N)=C(C([H])=O)C(OC(C)C)=N2)(N)=O

> <standard_relation>
=

> <predicted_activity_value>
7.131355561605174

> <actual_activity_value>
7.585026652029182

> <Publication ID>
nan

> <standard_units>
nM

> hash
7438502009623155154

$$$$
19_
XXILIB    08252103453D 0   0.00000     0.00000

 24 25  0     1  0            999 V2000
    5.3842    2.1628    3.8833 S   0  0  1  0  0  6           0  0  0
    5.0988    3.5729    4.0627 O   0  0  0  0  0  2           0  0  0
    6.6915    1.7184    3.4412 O   0  0  0  0  0  2           0  0  0
   -2.7352   -0.0298    2.3098 O   0  0  0  0  0  2           0  0  0
   -4.8357    0.4749   -1.0245 O   0  0  0  0  0  2           0  0  0
   -0.6719   -0.0000    1.1710 N   0  0  0  0  0  3           0  0  0
   -0.6198    0.0005   -1.2019 N   0  0  0  0  0  3           0  0  0
    4.9487    1.3161    5.2976 N   0  0  0  0  0  3           0  0  0
    1.4050   -0.0000   -0.0000 N   0  0  0  0  0  3           0  0  0
   -2.5675    0.0048   -2.5074 N   0  0  0  0  0  3           0  0  0
    4.1943    1.5199    2.7510 C   0  0  0  0  0  4           0  0  0
   -2.0236   -0.0073    1.1197 C   0  0  0  0  0  4           0  0  0
    0.0000   -0.0000    0.0000 C   0  0  0  0  0  4           0  0  0
   -1.9759    0.0186   -1.2467 C   0  0  0  0  0  4           0  0  0
    2.3172    0.5291    0.9164 C   0  0  0  0  0  4           0  0  0
   -2.7318   -0.0058   -0.0763 C   0  0  0  0  0  4           0  0  0
    2.9661    2.1608    2.6082 C   0  0  0  0  0  4           0  0  0
    4.5081    0.4016    1.9837 C   0  0  0  0  0  4           0  0  0
    2.0331    1.6624    1.6952 C   0  0  0  0  0  4           0  0  0
    3.5694   -0.0885    1.0732 C   0  0  0  0  0  4           0  0  0
   -4.1983   -0.0428   -0.1167 C   0  0  0  0  0  4           0  0  0
   -2.0906   -0.6870    3.4025 C   0  0  1  0  0  4           0  0  0
   -2.5699   -0.0084    4.6821 C   0  0  0  0  0  4           0  0  0
   -2.4697   -2.1657    3.4082 C   0  0  0  0  0  4           0  0  0
  1  2  2  0     0  0
  1  3  2  0     0  0
  1  8  1  0     0  0
  1 11  1  0     0  0
  4 12  1  0     0  0
  4 22  1  0     0  0
  5 21  2  0     0  0
  6 12  2  0     0  0
  6 13  1  0     0  0
  7 13  2  0     0  0
  7 14  1  0     0  0
  9 13  1  0     0  0
  9 15  1  0     0  0
 10 14  1  0     0  0
 11 17  1  0     0  0
 11 18  2  0     0  0
 12 16  1  0     0  0
 14 16  2  0     0  0
 15 19  1  0     0  0
 15 20  2  0     0  0
 16 21  1  0     0  0
 17 19  2  0     0  0
 18 20  1  0     0  0
 22 23  1  0     0  0
 22 24  1  0     0  0
M  END
> <Compound >
19

> <standard_type>
pIC50

> <# Confs.>
25

> <canonical_smiles>
O=S(C(C=C1)=CC=C1NC2=NC(N)=C(C([H])=O)C(OC(C)C)=N2)(N)=O

> <standard_relation>
=

> <predicted_activity_value>
7.131355561605174

> <actual_activity_value>
7.585026652029182

> <Publication ID>
nan

> <standard_units>
nM

> hash
7438502009623155154

$$$$
19_
XXILIB    08252103453D 0   0.00000     0.00000

 24 25  0     1  0            999 V2000
    5.3989    2.2189   -3.8363 S   0  0  1  0  0  6           0  0  0
    4.7639    2.2881   -5.1379 O   0  0  0  0  0  2           0  0  0
    6.6275    1.4732   -3.6464 O   0  0  0  0  0  2           0  0  0
   -2.7352   -0.0298    2.3098 O   0  0  0  0  0  2           0  0  0
   -4.8357    0.4749   -1.0245 O   0  0  0  0  0  2           0  0  0
   -0.6719   -0.0000    1.1710 N   0  0  0  0  0  3           0  0  0
   -0.6198    0.0005   -1.2019 N   0  0  0  0  0  3           0  0  0
    5.5954    3.7969   -3.2216 N   0  0  0  0  0  3           0  0  0
    1.4050    0.0000    0.0000 N   0  0  0  0  0  3           0  0  0
   -2.5675    0.0048   -2.5074 N   0  0  0  0  0  3           0  0  0
    4.2106    1.5823   -2.6988 C   0  0  0  0  0  4           0  0  0
   -2.0236   -0.0073    1.1197 C   0  0  0  0  0  4           0  0  0
    0.0000   -0.0000    0.0000 C   0  0  0  0  0  4           0  0  0
   -1.9759    0.0186   -1.2467 C   0  0  0  0  0  4           0  0  0
    2.3172    0.5291   -0.9164 C   0  0  0  0  0  4           0  0  0
   -2.7318   -0.0058   -0.0763 C   0  0  0  0  0  4           0  0  0
    2.8526    1.7252   -2.9727 C   0  0  0  0  0  4           0  0  0
    4.6406    0.9100   -1.5583 C   0  0  0  0  0  4           0  0  0
    1.9130    1.2014   -2.0809 C   0  0  0  0  0  4           0  0  0
    3.6940    0.3893   -0.6734 C   0  0  0  0  0  4           0  0  0
   -4.1983   -0.0428   -0.1167 C   0  0  0  0  0  4           0  0  0
   -1.9463   -0.0433    3.5009 C   0  0  1  0  0  4           0  0  0
   -1.7064    1.4099    3.8987 C   0  0  0  0  0  4           0  0  0
   -2.6971   -0.7822    4.6058 C   0  0  0  0  0  4           0  0  0
  1  2  2  0     0  0
  1  3  2  0     0  0
  1  8  1  0     0  0
  1 11  1  0     0  0
  4 12  1  0     0  0
  4 22  1  0     0  0
  5 21  2  0     0  0
  6 12  2  0     0  0
  6 13  1  0     0  0
  7 13  2  0     0  0
  7 14  1  0     0  0
  9 13  1  0     0  0
  9 15  1  0     0  0
 10 14  1  0     0  0
 11 17  1  0     0  0
 11 18  2  0     0  0
 12 16  1  0     0  0
 14 16  2  0     0  0
 15 19  1  0     0  0
 15 20  2  0     0  0
 16 21  1  0     0  0
 17 19  2  0     0  0
 18 20  1  0     0  0
 22 23  1  0     0  0
 22 24  1  0     0  0
M  END
> <Compound >
19

> <standard_type>
pIC50

> <# Confs.>
25

> <canonical_smiles>
O=S(C(C=C1)=CC=C1NC2=NC(N)=C(C([H])=O)C(OC(C)C)=N2)(N)=O

> <standard_relation>
=

> <predicted_activity_value>
7.131355561605174

> <actual_activity_value>
7.585026652029182

> <Publication ID>
nan

> <standard_units>
nM

> hash
7438502009623155154

$$$$
19_
XXILIB    08252103453D 0   0.00000     0.00000

 24 25  0     1  0            999 V2000
    5.3989    2.2189   -3.8363 S   0  0  1  0  0  6           0  0  0
    6.6221    2.4648   -3.0978 O   0  0  0  0  0  2           0  0  0
    4.7578    3.2794   -4.5888 O   0  0  0  0  0  2           0  0  0
   -2.7352   -0.0298    2.3098 O   0  0  0  0  0  2           0  0  0
   -4.8357    0.4749   -1.0245 O   0  0  0  0  0  2           0  0  0
   -0.6719   -0.0000    1.1710 N   0  0  0  0  0  3           0  0  0
   -0.6198    0.0005   -1.2019 N   0  0  0  0  0  3           0  0  0
    5.6139    0.8613   -4.8451 N   0  0  0  0  0  3           0  0  0
    1.4050    0.0000    0.0000 N   0  0  0  0  0  3           0  0  0
   -2.5675    0.0048   -2.5074 N   0  0  0  0  0  3           0  0  0
    4.2106    1.5823   -2.6988 C   0  0  0  0  0  4           0  0  0
   -2.0236   -0.0073    1.1197 C   0  0  0  0  0  4           0  0  0
    0.0000   -0.0000    0.0000 C   0  0  0  0  0  4           0  0  0
   -1.9759    0.0186   -1.2467 C   0  0  0  0  0  4           0  0  0
    2.3172    0.5291   -0.9164 C   0  0  0  0  0  4           0  0  0
   -2.7318   -0.0058   -0.0763 C   0  0  0  0  0  4           0  0  0
    2.8526    1.7252   -2.9727 C   0  0  0  0  0  4           0  0  0
    4.6406    0.9100   -1.5583 C   0  0  0  0  0  4           0  0  0
    1.9130    1.2014   -2.0809 C   0  0  0  0  0  4           0  0  0
    3.6940    0.3893   -0.6734 C   0  0  0  0  0  4           0  0  0
   -4.1983   -0.0428   -0.1167 C   0  0  0  0  0  4           0  0  0
   -1.9463   -0.0433    3.5009 C   0  0  1  0  0  4           0  0  0
   -1.7064    1.4099    3.8987 C   0  0  0  0  0  4           0  0  0
   -2.6971   -0.7822    4.6058 C   0  0  0  0  0  4           0  0  0
  1  2  2  0     0  0
  1  3  2  0     0  0
  1  8  1  0     0  0
  1 11  1  0     0  0
  4 12  1  0     0  0
  4 22  1  0     0  0
  5 21  2  0     0  0
  6 12  2  0     0  0
  6 13  1  0     0  0
  7 13  2  0     0  0
  7 14  1  0     0  0
  9 13  1  0     0  0
  9 15  1  0     0  0
 10 14  1  0     0  0
 11 17  1  0     0  0
 11 18  2  0     0  0
 12 16  1  0     0  0
 14 16  2  0     0  0
 15 19  1  0     0  0
 15 20  2  0     0  0
 16 21  1  0     0  0
 17 19  2  0     0  0
 18 20  1  0     0  0
 22 23  1  0     0  0
 22 24  1  0     0  0
M  END
> <Compound >
19

> <standard_type>
pIC50

> <# Confs.>
25

> <canonical_smiles>
O=S(C(C=C1)=CC=C1NC2=NC(N)=C(C([H])=O)C(OC(C)C)=N2)(N)=O

> <standard_relation>
=

> <predicted_activity_value>
7.131355561605174

> <actual_activity_value>
7.585026652029182

> <Publication ID>
nan

> <standard_units>
nM

> hash
7438502009623155154

$$$$
19_
XXILIB    08252103453D 0   0.00000     0.00000

 24 25  0     1  0            999 V2000
    5.3989    0.0034   -4.4318 S   0  0  1  0  0  6           0  0  0
    4.7639   -0.5875   -5.5936 O   0  0  0  0  0  2           0  0  0
    6.6275   -0.5474   -3.8944 O   0  0  0  0  0  2           0  0  0
   -2.7352   -0.0298    2.3098 O   0  0  0  0  0  2           0  0  0
   -4.8357    0.4749   -1.0245 O   0  0  0  0  0  2           0  0  0
   -0.6719   -0.0000    1.1710 N   0  0  0  0  0  3           0  0  0
   -0.6198    0.0005   -1.2019 N   0  0  0  0  0  3           0  0  0
    5.5954    1.6775   -4.6884 N   0  0  0  0  0  3           0  0  0
    1.4050    0.0000    0.0000 N   0  0  0  0  0  3           0  0  0
   -2.5675    0.0048   -2.5074 N   0  0  0  0  0  3           0  0  0
    4.2106    0.0209   -3.1284 C   0  0  0  0  0  4           0  0  0
   -2.0236   -0.0073    1.1197 C   0  0  0  0  0  4           0  0  0
    0.0000   -0.0000    0.0000 C   0  0  0  0  0  4           0  0  0
   -1.9759    0.0186   -1.2467 C   0  0  0  0  0  4           0  0  0
    2.3172    0.0000   -1.0582 C   0  0  0  0  0  4           0  0  0
   -2.7318   -0.0058   -0.0763 C   0  0  0  0  0  4           0  0  0
    2.8526    0.0077   -3.4371 C   0  0  0  0  0  4           0  0  0
    4.6406    0.0090   -1.8045 C   0  0  0  0  0  4           0  0  0
    1.9130    0.0000   -2.4028 C   0  0  0  0  0  4           0  0  0
    3.6940    0.0004   -0.7778 C   0  0  0  0  0  4           0  0  0
   -4.1983   -0.0428   -0.1167 C   0  0  0  0  0  4           0  0  0
   -2.0906   -0.6870    3.4025 C   0  0  1  0  0  4           0  0  0
   -1.2695    0.3661    4.1402 C   0  0  0  0  0  4           0  0  0
   -3.1414   -1.2911    4.3305 C   0  0  0  0  0  4           0  0  0
  1  2  2  0     0  0
  1  3  2  0     0  0
  1  8  1  0     0  0
  1 11  1  0     0  0
  4 12  1  0     0  0
  4 22  1  0     0  0
  5 21  2  0     0  0
  6 12  2  0     0  0
  6 13  1  0     0  0
  7 13  2  0     0  0
  7 14  1  0     0  0
  9 13  1  0     0  0
  9 15  1  0     0  0
 10 14  1  0     0  0
 11 17  1  0     0  0
 11 18  2  0     0  0
 12 16  1  0     0  0
 14 16  2  0     0  0
 15 19  1  0     0  0
 15 20  2  0     0  0
 16 21  1  0     0  0
 17 19  2  0     0  0
 18 20  1  0     0  0
 22 23  1  0     0  0
 22 24  1  0     0  0
M  END
> <Compound >
19

> <standard_type>
pIC50

> <# Confs.>
25

> <canonical_smiles>
O=S(C(C=C1)=CC=C1NC2=NC(N)=C(C([H])=O)C(OC(C)C)=N2)(N)=O

> <standard_relation>
=

> <predicted_activity_value>
7.131355561605174

> <actual_activity_value>
7.585026652029182

> <Publication ID>
nan

> <standard_units>
nM

> hash
7438502009623155154

$$$$
19_
XXILIB    08252103453D 0   0.00000     0.00000

 24 25  0     1  0            999 V2000
    5.3842   -0.0686    4.4444 S   0  0  1  0  0  6           0  0  0
    6.2587   -1.2048    4.2285 O   0  0  0  0  0  2           0  0  0
    4.6654    0.0905    5.6933 O   0  0  0  0  0  2           0  0  0
   -2.7352   -0.0298    2.3098 O   0  0  0  0  0  2           0  0  0
   -4.8186   -0.0414   -1.1719 O   0  0  0  0  0  2           0  0  0
   -0.6719   -0.0000    1.1710 N   0  0  0  0  0  3           0  0  0
   -0.6198    0.0005   -1.2019 N   0  0  0  0  0  3           0  0  0
    6.2319    1.3685    4.0939 N   0  0  0  0  0  3           0  0  0
    1.4050    0.0000   -0.0000 N   0  0  0  0  0  3           0  0  0
   -2.5675    0.0048   -2.5074 N   0  0  0  0  0  3           0  0  0
    4.1943   -0.0593    3.1424 C   0  0  0  0  0  4           0  0  0
   -2.0236   -0.0073    1.1197 C   0  0  0  0  0  4           0  0  0
    0.0000   -0.0000    0.0000 C   0  0  0  0  0  4           0  0  0
   -1.9759    0.0186   -1.2467 C   0  0  0  0  0  4           0  0  0
    2.3172    0.0000    1.0582 C   0  0  0  0  0  4           0  0  0
   -2.7318   -0.0058   -0.0763 C   0  0  0  0  0  4           0  0  0
    2.9661    0.5672    3.3392 C   0  0  0  0  0  4           0  0  0
    4.5081   -0.6440    1.9187 C   0  0  0  0  0  4           0  0  0
    2.0331    0.5921    2.2992 C   0  0  0  0  0  4           0  0  0
    3.5694   -0.6133    0.8852 C   0  0  0  0  0  4           0  0  0
   -4.1983   -0.0428   -0.1167 C   0  0  0  0  0  4           0  0  0
   -2.0984    0.6013    3.4222 C   0  0  1  0  0  4           0  0  0
   -1.8754    2.0624    3.0441 C   0  0  0  0  0  4           0  0  0
   -2.9954    0.4993    4.6532 C   0  0  0  0  0  4           0  0  0
  1  2  2  0     0  0
  1  3  2  0     0  0
  1  8  1  0     0  0
  1 11  1  0     0  0
  4 12  1  0     0  0
  4 22  1  0     0  0
  5 21  2  0     0  0
  6 12  2  0     0  0
  6 13  1  0     0  0
  7 13  2  0     0  0
  7 14  1  0     0  0
  9 13  1  0     0  0
  9 15  1  0     0  0
 10 14  1  0     0  0
 11 17  1  0     0  0
 11 18  2  0     0  0
 12 16  1  0     0  0
 14 16  2  0     0  0
 15 19  1  0     0  0
 15 20  2  0     0  0
 16 21  1  0     0  0
 17 19  2  0     0  0
 18 20  1  0     0  0
 22 23  1  0     0  0
 22 24  1  0     0  0
M  END
> <Compound >
19

> <standard_type>
pIC50

> <# Confs.>
25

> <canonical_smiles>
O=S(C(C=C1)=CC=C1NC2=NC(N)=C(C([H])=O)C(OC(C)C)=N2)(N)=O

> <standard_relation>
=

> <predicted_activity_value>
7.131355561605174

> <actual_activity_value>
7.585026652029182

> <Publication ID>
nan

> <standard_units>
nM

> hash
7438502009623155154

$$$$
29_
XXILIB    08252103453D 0   0.00000     0.00000

 22 24  0     1  0            999 V2000
    0.7557   -1.3709    5.9647 Br  0  0  0  0  0  1           0  0  0
    1.3870    0.0000    0.0000 O   0  0  0  0  0  2           0  0  0
   -0.6868    0.0000    1.1669 N   0  0  0  0  0  3           0  0  0
   -2.7179    0.0048   -0.0794 N   0  0  0  0  0  3           0  0  0
   -2.8002    0.0065    2.2716 N   0  0  0  0  0  3           0  0  0
   -0.8608   -0.5634    5.4007 C   0  0  0  0  0  4           0  0  0
    0.0000    0.0000    0.0000 C   0  0  0  0  0  4           0  0  0
   -2.0414    0.0031    1.0937 C   0  0  0  0  0  4           0  0  0
   -1.9843    0.0049   -1.2127 C   0  0  0  0  0  4           0  0  0
   -2.4057    0.0075    3.6113 C   0  0  0  0  0  4           0  0  0
   -1.2105   -0.5864    4.0471 C   0  0  0  0  0  4           0  0  0
   -1.6901    0.0454    6.3397 C   0  0  0  0  0  4           0  0  0
   -0.6090    0.0026   -1.2352 C   0  0  0  0  0  4           0  0  0
   -3.2323    0.6189    4.5685 C   0  0  0  0  0  4           0  0  0
   -2.8785    0.6365    5.9200 C   0  0  0  0  0  4           0  0  0
    1.9738    0.0000    1.3012 C   0  0  0  0  0  4           0  0  0
    3.4972    0.0000    1.1814 C   0  0  2  0  0  4           0  0  0
    4.0020   -1.2388    0.4243 C   0  0  0  0  0  4           0  0  0
    4.1702    0.0909    2.5605 C   0  0  0  0  0  4           0  0  0
    5.5246   -1.2420    0.3040 C   0  0  0  0  0  4           0  0  0
    5.6931    0.0897    2.4433 C   0  0  0  0  0  4           0  0  0
    6.1976   -1.1234    1.6680 C   0  0  0  0  0  4           0  0  0
  1  6  1  0     0  0
  2  7  1  0     0  0
  2 16  1  0     0  0
  3  7  2  0     0  0
  3  8  1  0     0  0
  4  8  2  0     0  0
  4  9  1  0     0  0
  5  8  1  0     0  0
  5 10  1  0     0  0
  6 11  1  0     0  0
  6 12  2  0     0  0
  7 13  1  0     0  0
  9 13  2  0     0  0
 10 11  2  0     0  0
 10 14  1  0     0  0
 12 15  1  0     0  0
 14 15  2  0     0  0
 16 17  1  0     0  0
 17 18  1  0     0  0
 17 19  1  0     0  0
 18 20  1  0     0  0
 19 21  1  0     0  0
 20 22  1  0     0  0
 21 22  1  0     0  0
M  END
> <Compound >
29

> <standard_type>
pIC50

> <# Confs.>
25

> <canonical_smiles>
BrC1=CC=CC(NC2=NC=CC(OCC3CCCCC3)=N2)=C1

> <standard_relation>
=

> <predicted_activity_value>
4.534746563790513

> <actual_activity_value>
4.585026652029182

> <Publication ID>
nan

> <standard_units>
nM

> hash
10727315522417977215

$$$$
29_
XXILIB    08252103453D 0   0.00000     0.00000

 22 24  0     1  0            999 V2000
    0.7665    1.3700    5.9595 Br  0  0  0  0  0  1           0  0  0
    1.3870    0.0000    0.0000 O   0  0  0  0  0  2           0  0  0
   -0.6868    0.0000    1.1669 N   0  0  0  0  0  3           0  0  0
   -2.7179    0.0048   -0.0794 N   0  0  0  0  0  3           0  0  0
   -2.8002    0.0065    2.2716 N   0  0  0  0  0  3           0  0  0
   -0.8537    0.5685    5.3978 C   0  0  0  0  0  4           0  0  0
    0.0000    0.0000    0.0000 C   0  0  0  0  0  4           0  0  0
   -2.0414    0.0031    1.0937 C   0  0  0  0  0  4           0  0  0
   -1.9843    0.0049   -1.2127 C   0  0  0  0  0  4           0  0  0
   -2.4057    0.0075    3.6113 C   0  0  0  0  0  4           0  0  0
   -1.2077    0.5971    4.0454 C   0  0  0  0  0  4           0  0  0
   -1.6794   -0.0455    6.3366 C   0  0  0  0  0  4           0  0  0
   -0.6090    0.0026   -1.2352 C   0  0  0  0  0  4           0  0  0
   -3.2295   -0.6074    4.5686 C   0  0  0  0  0  4           0  0  0
   -2.8692   -0.6349    5.9182 C   0  0  0  0  0  4           0  0  0
    1.9738    0.0000    1.3012 C   0  0  0  0  0  4           0  0  0
    3.4972    0.0000    1.1814 C   0  0  2  0  0  4           0  0  0
    4.0020   -1.2388    0.4243 C   0  0  0  0  0  4           0  0  0
    4.1702    0.0909    2.5605 C   0  0  0  0  0  4           0  0  0
    5.5246   -1.2420    0.3040 C   0  0  0  0  0  4           0  0  0
    5.6931    0.0897    2.4433 C   0  0  0  0  0  4           0  0  0
    6.1976   -1.1234    1.6680 C   0  0  0  0  0  4           0  0  0
  1  6  1  0     0  0
  2  7  1  0     0  0
  2 16  1  0     0  0
  3  7  2  0     0  0
  3  8  1  0     0  0
  4  8  2  0     0  0
  4  9  1  0     0  0
  5  8  1  0     0  0
  5 10  1  0     0  0
  6 11  1  0     0  0
  6 12  2  0     0  0
  7 13  1  0     0  0
  9 13  2  0     0  0
 10 11  2  0     0  0
 10 14  1  0     0  0
 12 15  1  0     0  0
 14 15  2  0     0  0
 16 17  1  0     0  0
 17 18  1  0     0  0
 17 19  1  0     0  0
 18 20  1  0     0  0
 19 21  1  0     0  0
 20 22  1  0     0  0
 21 22  1  0     0  0
M  END
> <Compound >
29

> <standard_type>
pIC50

> <# Confs.>
25

> <canonical_smiles>
BrC1=CC=CC(NC2=NC=CC(OCC3CCCCC3)=N2)=C1

> <standard_relation>
=

> <predicted_activity_value>
4.534746563790513

> <actual_activity_value>
4.585026652029182

> <Publication ID>
nan

> <standard_units>
nM

> hash
10727315522417977215

$$$$
29_
XXILIB    08252103453D 0   0.00000     0.00000

 22 24  0     1  0            999 V2000
    0.7665    1.3700    5.9595 Br  0  0  0  0  0  1           0  0  0
    1.3870    0.0000    0.0000 O   0  0  0  0  0  2           0  0  0
   -0.6868    0.0000    1.1669 N   0  0  0  0  0  3           0  0  0
   -2.7179    0.0048   -0.0794 N   0  0  0  0  0  3           0  0  0
   -2.8002    0.0065    2.2716 N   0  0  0  0  0  3           0  0  0
   -0.8537    0.5685    5.3978 C   0  0  0  0  0  4           0  0  0
    0.0000    0.0000    0.0000 C   0  0  0  0  0  4           0  0  0
   -2.0414    0.0031    1.0937 C   0  0  0  0  0  4           0  0  0
   -1.9843    0.0049   -1.2127 C   0  0  0  0  0  4           0  0  0
   -2.4057    0.0075    3.6113 C   0  0  0  0  0  4           0  0  0
   -1.2077    0.5971    4.0454 C   0  0  0  0  0  4           0  0  0
   -1.6794   -0.0455    6.3366 C   0  0  0  0  0  4           0  0  0
   -0.6090    0.0026   -1.2352 C   0  0  0  0  0  4           0  0  0
   -3.2295   -0.6074    4.5686 C   0  0  0  0  0  4           0  0  0
   -2.8692   -0.6349    5.9182 C   0  0  0  0  0  4           0  0  0
    1.9738    0.0000    1.3012 C   0  0  0  0  0  4           0  0  0
    3.4972    0.0000    1.1814 C   0  0  2  0  0  4           0  0  0
    4.1702   -0.0000    2.5634 C   0  0  0  0  0  4           0  0  0
    3.9962    1.1909    0.3472 C   0  0  0  0  0  4           0  0  0
    5.6931    0.0011    2.4467 C   0  0  0  0  0  4           0  0  0
    5.5189    1.1936    0.2273 C   0  0  0  0  0  4           0  0  0
    6.1919    1.1651    1.5961 C   0  0  0  0  0  4           0  0  0
  1  6  1  0     0  0
  2  7  1  0     0  0
  2 16  1  0     0  0
  3  7  2  0     0  0
  3  8  1  0     0  0
  4  8  2  0     0  0
  4  9  1  0     0  0
  5  8  1  0     0  0
  5 10  1  0     0  0
  6 11  1  0     0  0
  6 12  2  0     0  0
  7 13  1  0     0  0
  9 13  2  0     0  0
 10 11  2  0     0  0
 10 14  1  0     0  0
 12 15  1  0     0  0
 14 15  2  0     0  0
 16 17  1  0     0  0
 17 18  1  0     0  0
 17 19  1  0     0  0
 18 20  1  0     0  0
 19 21  1  0     0  0
 20 22  1  0     0  0
 21 22  1  0     0  0
M  END
> <Compound >
29

> <standard_type>
pIC50

> <# Confs.>
25

> <canonical_smiles>
BrC1=CC=CC(NC2=NC=CC(OCC3CCCCC3)=N2)=C1

> <standard_relation>
=

> <predicted_activity_value>
4.534746563790513

> <actual_activity_value>
4.585026652029182

> <Publication ID>
nan

> <standard_units>
nM

> hash
10727315522417977215

$$$$
29_
XXILIB    08252103453D 0   0.00000     0.00000

 22 24  0     1  0            999 V2000
    0.7557   -1.3709    5.9647 Br  0  0  0  0  0  1           0  0  0
    1.3870    0.0000    0.0000 O   0  0  0  0  0  2           0  0  0
   -0.6868    0.0000    1.1669 N   0  0  0  0  0  3           0  0  0
   -2.7179    0.0048   -0.0794 N   0  0  0  0  0  3           0  0  0
   -2.8002    0.0065    2.2716 N   0  0  0  0  0  3           0  0  0
   -0.8608   -0.5634    5.4007 C   0  0  0  0  0  4           0  0  0
    0.0000    0.0000    0.0000 C   0  0  0  0  0  4           0  0  0
   -2.0414    0.0031    1.0937 C   0  0  0  0  0  4           0  0  0
   -1.9843    0.0049   -1.2127 C   0  0  0  0  0  4           0  0  0
   -2.4057    0.0075    3.6113 C   0  0  0  0  0  4           0  0  0
   -1.2105   -0.5864    4.0471 C   0  0  0  0  0  4           0  0  0
   -1.6901    0.0454    6.3397 C   0  0  0  0  0  4           0  0  0
   -0.6090    0.0026   -1.2352 C   0  0  0  0  0  4           0  0  0
   -3.2323    0.6189    4.5685 C   0  0  0  0  0  4           0  0  0
   -2.8785    0.6365    5.9200 C   0  0  0  0  0  4           0  0  0
    1.9738    0.0000    1.3012 C   0  0  0  0  0  4           0  0  0
    3.4972    0.0000    1.1814 C   0  0  2  0  0  4           0  0  0
    4.1702   -0.0000    2.5634 C   0  0  0  0  0  4           0  0  0
    3.9962    1.1909    0.3472 C   0  0  0  0  0  4           0  0  0
    5.6931    0.0011    2.4467 C   0  0  0  0  0  4           0  0  0
    5.5189    1.1936    0.2273 C   0  0  0  0  0  4           0  0  0
    6.1919    1.1651    1.5961 C   0  0  0  0  0  4           0  0  0
  1  6  1  0     0  0
  2  7  1  0     0  0
  2 16  1  0     0  0
  3  7  2  0     0  0
  3  8  1  0     0  0
  4  8  2  0     0  0
  4  9  1  0     0  0
  5  8  1  0     0  0
  5 10  1  0     0  0
  6 11  1  0     0  0
  6 12  2  0     0  0
  7 13  1  0     0  0
  9 13  2  0     0  0
 10 11  2  0     0  0
 10 14  1  0     0  0
 12 15  1  0     0  0
 14 15  2  0     0  0
 16 17  1  0     0  0
 17 18  1  0     0  0
 17 19  1  0     0  0
 18 20  1  0     0  0
 19 21  1  0     0  0
 20 22  1  0     0  0
 21 22  1  0     0  0
M  END
> <Compound >
29

> <standard_type>
pIC50

> <# Confs.>
25

> <canonical_smiles>
BrC1=CC=CC(NC2=NC=CC(OCC3CCCCC3)=N2)=C1

> <standard_relation>
=

> <predicted_activity_value>
4.534746563790513

> <actual_activity_value>
4.585026652029182

> <Publication ID>
nan

> <standard_units>
nM

> hash
10727315522417977215

$$$$
29_
XXILIB    08252103453D 0   0.00000     0.00000

 22 24  0     1  0            999 V2000
    0.7557   -1.3709    5.9647 Br  0  0  0  0  0  1           0  0  0
    1.3870    0.0000    0.0000 O   0  0  0  0  0  2           0  0  0
   -0.6868    0.0000    1.1669 N   0  0  0  0  0  3           0  0  0
   -2.7179    0.0048   -0.0794 N   0  0  0  0  0  3           0  0  0
   -2.8002    0.0065    2.2716 N   0  0  0  0  0  3           0  0  0
   -0.8608   -0.5634    5.4007 C   0  0  0  0  0  4           0  0  0
    0.0000    0.0000    0.0000 C   0  0  0  0  0  4           0  0  0
   -2.0414    0.0031    1.0937 C   0  0  0  0  0  4           0  0  0
   -1.9843    0.0049   -1.2127 C   0  0  0  0  0  4           0  0  0
   -2.4057    0.0075    3.6113 C   0  0  0  0  0  4           0  0  0
   -1.2105   -0.5864    4.0471 C   0  0  0  0  0  4           0  0  0
   -1.6901    0.0454    6.3397 C   0  0  0  0  0  4           0  0  0
   -0.6090    0.0026   -1.2352 C   0  0  0  0  0  4           0  0  0
   -3.2323    0.6189    4.5685 C   0  0  0  0  0  4           0  0  0
   -2.8785    0.6365    5.9200 C   0  0  0  0  0  4           0  0  0
    1.9738    0.0000    1.3012 C   0  0  0  0  0  4           0  0  0
    3.4972    0.0000    1.1814 C   0  0  2  0  0  4           0  0  0
    4.0020    1.2388    0.4243 C   0  0  0  0  0  4           0  0  0
    4.0085   -1.2818    0.5042 C   0  0  0  0  0  4           0  0  0
    5.5245    1.2409    0.3021 C   0  0  0  0  0  4           0  0  0
    5.5310   -1.2833    0.3822 C   0  0  0  0  0  4           0  0  0
    6.0394   -0.0416   -0.3438 C   0  0  0  0  0  4           0  0  0
  1  6  1  0     0  0
  2  7  1  0     0  0
  2 16  1  0     0  0
  3  7  2  0     0  0
  3  8  1  0     0  0
  4  8  2  0     0  0
  4  9  1  0     0  0
  5  8  1  0     0  0
  5 10  1  0     0  0
  6 11  1  0     0  0
  6 12  2  0     0  0
  7 13  1  0     0  0
  9 13  2  0     0  0
 10 11  2  0     0  0
 10 14  1  0     0  0
 12 15  1  0     0  0
 14 15  2  0     0  0
 16 17  1  0     0  0
 17 18  1  0     0  0
 17 19  1  0     0  0
 18 20  1  0     0  0
 19 21  1  0     0  0
 20 22  1  0     0  0
 21 22  1  0     0  0
M  END
> <Compound >
29

> <standard_type>
pIC50

> <# Confs.>
25

> <canonical_smiles>
BrC1=CC=CC(NC2=NC=CC(OCC3CCCCC3)=N2)=C1

> <standard_relation>
=

> <predicted_activity_value>
4.534746563790513

> <actual_activity_value>
4.585026652029182

> <Publication ID>
nan

> <standard_units>
nM

> hash
10727315522417977215

$$$$
29_
XXILIB    08252103453D 0   0.00000     0.00000

 22 24  0     1  0            999 V2000
    0.7665    1.3700    5.9595 Br  0  0  0  0  0  1           0  0  0
    1.3870    0.0000    0.0000 O   0  0  0  0  0  2           0  0  0
   -0.6868    0.0000    1.1669 N   0  0  0  0  0  3           0  0  0
   -2.7179    0.0048   -0.0794 N   0  0  0  0  0  3           0  0  0
   -2.8002    0.0065    2.2716 N   0  0  0  0  0  3           0  0  0
   -0.8537    0.5685    5.3978 C   0  0  0  0  0  4           0  0  0
    0.0000    0.0000    0.0000 C   0  0  0  0  0  4           0  0  0
   -2.0414    0.0031    1.0937 C   0  0  0  0  0  4           0  0  0
   -1.9843    0.0049   -1.2127 C   0  0  0  0  0  4           0  0  0
   -2.4057    0.0075    3.6113 C   0  0  0  0  0  4           0  0  0
   -1.2077    0.5971    4.0454 C   0  0  0  0  0  4           0  0  0
   -1.6794   -0.0455    6.3366 C   0  0  0  0  0  4           0  0  0
   -0.6090    0.0026   -1.2352 C   0  0  0  0  0  4           0  0  0
   -3.2295   -0.6074    4.5686 C   0  0  0  0  0  4           0  0  0
   -2.8692   -0.6349    5.9182 C   0  0  0  0  0  4           0  0  0
    1.9738    0.0000    1.3012 C   0  0  0  0  0  4           0  0  0
    3.4972    0.0000    1.1814 C   0  0  2  0  0  4           0  0  0
    4.0020    1.2388    0.4243 C   0  0  0  0  0  4           0  0  0
    4.0085   -1.2818    0.5042 C   0  0  0  0  0  4           0  0  0
    5.5245    1.2409    0.3021 C   0  0  0  0  0  4           0  0  0
    5.5310   -1.2833    0.3822 C   0  0  0  0  0  4           0  0  0
    6.0394   -0.0416   -0.3438 C   0  0  0  0  0  4           0  0  0
  1  6  1  0     0  0
  2  7  1  0     0  0
  2 16  1  0     0  0
  3  7  2  0     0  0
  3  8  1  0     0  0
  4  8  2  0     0  0
  4  9  1  0     0  0
  5  8  1  0     0  0
  5 10  1  0     0  0
  6 11  1  0     0  0
  6 12  2  0     0  0
  7 13  1  0     0  0
  9 13  2  0     0  0
 10 11  2  0     0  0
 10 14  1  0     0  0
 12 15  1  0     0  0
 14 15  2  0     0  0
 16 17  1  0     0  0
 17 18  1  0     0  0
 17 19  1  0     0  0
 18 20  1  0     0  0
 19 21  1  0     0  0
 20 22  1  0     0  0
 21 22  1  0     0  0
M  END
> <Compound >
29

> <standard_type>
pIC50

> <# Confs.>
25

> <canonical_smiles>
BrC1=CC=CC(NC2=NC=CC(OCC3CCCCC3)=N2)=C1

> <standard_relation>
=

> <predicted_activity_value>
4.534746563790513

> <actual_activity_value>
4.585026652029182

> <Publication ID>
nan

> <standard_units>
nM

> hash
10727315522417977215

$$$$
29_
XXILIB    08252103453D 0   0.00000     0.00000

 22 24  0     1  0            999 V2000
    0.7557   -1.3709    5.9647 Br  0  0  0  0  0  1           0  0  0
    1.3870    0.0000    0.0000 O   0  0  0  0  0  2           0  0  0
   -0.6868    0.0000    1.1669 N   0  0  0  0  0  3           0  0  0
   -2.7179    0.0048   -0.0794 N   0  0  0  0  0  3           0  0  0
   -2.8002    0.0065    2.2716 N   0  0  0  0  0  3           0  0  0
   -0.8608   -0.5634    5.4007 C   0  0  0  0  0  4           0  0  0
    0.0000    0.0000    0.0000 C   0  0  0  0  0  4           0  0  0
   -2.0414    0.0031    1.0937 C   0  0  0  0  0  4           0  0  0
   -1.9843    0.0049   -1.2127 C   0  0  0  0  0  4           0  0  0
   -2.4057    0.0075    3.6113 C   0  0  0  0  0  4           0  0  0
   -1.2105   -0.5864    4.0471 C   0  0  0  0  0  4           0  0  0
   -1.6901    0.0454    6.3397 C   0  0  0  0  0  4           0  0  0
   -0.6090    0.0026   -1.2352 C   0  0  0  0  0  4           0  0  0
   -3.2323    0.6189    4.5685 C   0  0  0  0  0  4           0  0  0
   -2.8785    0.6365    5.9200 C   0  0  0  0  0  4           0  0  0
    1.9738    0.0000    1.3012 C   0  0  0  0  0  4           0  0  0
    3.4972    0.0000    1.1814 C   0  0  2  0  0  4           0  0  0
    4.0290    1.2313    0.4265 C   0  0  0  0  0  4           0  0  0
    4.1684   -0.1134    2.5584 C   0  0  0  0  0  4           0  0  0
    3.9280    2.5191    1.2424 C   0  0  0  0  0  4           0  0  0
    4.0621    1.1711    3.3784 C   0  0  0  0  0  4           0  0  0
    4.5941    2.3756    2.6076 C   0  0  0  0  0  4           0  0  0
  1  6  1  0     0  0
  2  7  1  0     0  0
  2 16  1  0     0  0
  3  7  2  0     0  0
  3  8  1  0     0  0
  4  8  2  0     0  0
  4  9  1  0     0  0
  5  8  1  0     0  0
  5 10  1  0     0  0
  6 11  1  0     0  0
  6 12  2  0     0  0
  7 13  1  0     0  0
  9 13  2  0     0  0
 10 11  2  0     0  0
 10 14  1  0     0  0
 12 15  1  0     0  0
 14 15  2  0     0  0
 16 17  1  0     0  0
 17 18  1  0     0  0
 17 19  1  0     0  0
 18 20  1  0     0  0
 19 21  1  0     0  0
 20 22  1  0     0  0
 21 22  1  0     0  0
M  END
> <Compound >
29

> <standard_type>
pIC50

> <# Confs.>
25

> <canonical_smiles>
BrC1=CC=CC(NC2=NC=CC(OCC3CCCCC3)=N2)=C1

> <standard_relation>
=

> <predicted_activity_value>
4.534746563790513

> <actual_activity_value>
4.585026652029182

> <Publication ID>
nan

> <standard_units>
nM

> hash
10727315522417977215

$$$$
29_
XXILIB    08252103453D 0   0.00000     0.00000

 22 24  0     1  0            999 V2000
    0.7665    1.3700    5.9595 Br  0  0  0  0  0  1           0  0  0
    1.3870    0.0000    0.0000 O   0  0  0  0  0  2           0  0  0
   -0.6868    0.0000    1.1669 N   0  0  0  0  0  3           0  0  0
   -2.7179    0.0048   -0.0794 N   0  0  0  0  0  3           0  0  0
   -2.8002    0.0065    2.2716 N   0  0  0  0  0  3           0  0  0
   -0.8537    0.5685    5.3978 C   0  0  0  0  0  4           0  0  0
    0.0000    0.0000    0.0000 C   0  0  0  0  0  4           0  0  0
   -2.0414    0.0031    1.0937 C   0  0  0  0  0  4           0  0  0
   -1.9843    0.0049   -1.2127 C   0  0  0  0  0  4           0  0  0
   -2.4057    0.0075    3.6113 C   0  0  0  0  0  4           0  0  0
   -1.2077    0.5971    4.0454 C   0  0  0  0  0  4           0  0  0
   -1.6794   -0.0455    6.3366 C   0  0  0  0  0  4           0  0  0
   -0.6090    0.0026   -1.2352 C   0  0  0  0  0  4           0  0  0
   -3.2295   -0.6074    4.5686 C   0  0  0  0  0  4           0  0  0
   -2.8692   -0.6349    5.9182 C   0  0  0  0  0  4           0  0  0
    1.9738    0.0000    1.3012 C   0  0  0  0  0  4           0  0  0
    3.4972    0.0000    1.1814 C   0  0  2  0  0  4           0  0  0
    4.0290    1.2313    0.4265 C   0  0  0  0  0  4           0  0  0
    4.1684   -0.1134    2.5584 C   0  0  0  0  0  4           0  0  0
    3.9280    2.5191    1.2424 C   0  0  0  0  0  4           0  0  0
    4.0621    1.1711    3.3784 C   0  0  0  0  0  4           0  0  0
    4.5941    2.3756    2.6076 C   0  0  0  0  0  4           0  0  0
  1  6  1  0     0  0
  2  7  1  0     0  0
  2 16  1  0     0  0
  3  7  2  0     0  0
  3  8  1  0     0  0
  4  8  2  0     0  0
  4  9  1  0     0  0
  5  8  1  0     0  0
  5 10  1  0     0  0
  6 11  1  0     0  0
  6 12  2  0     0  0
  7 13  1  0     0  0
  9 13  2  0     0  0
 10 11  2  0     0  0
 10 14  1  0     0  0
 12 15  1  0     0  0
 14 15  2  0     0  0
 16 17  1  0     0  0
 17 18  1  0     0  0
 17 19  1  0     0  0
 18 20  1  0     0  0
 19 21  1  0     0  0
 20 22  1  0     0  0
 21 22  1  0     0  0
M  END
> <Compound >
29

> <standard_type>
pIC50

> <# Confs.>
25

> <canonical_smiles>
BrC1=CC=CC(NC2=NC=CC(OCC3CCCCC3)=N2)=C1

> <standard_relation>
=

> <predicted_activity_value>
4.534746563790513

> <actual_activity_value>
4.585026652029182

> <Publication ID>
nan

> <standard_units>
nM

> hash
10727315522417977215

$$$$
29_
XXILIB    08252103453D 0   0.00000     0.00000

 22 24  0     1  0            999 V2000
    0.7557   -1.3709    5.9647 Br  0  0  0  0  0  1           0  0  0
    1.3870    0.0000    0.0000 O   0  0  0  0  0  2           0  0  0
   -0.6868    0.0000    1.1669 N   0  0  0  0  0  3           0  0  0
   -2.7179    0.0048   -0.0794 N   0  0  0  0  0  3           0  0  0
   -2.8002    0.0065    2.2716 N   0  0  0  0  0  3           0  0  0
   -0.8608   -0.5634    5.4007 C   0  0  0  0  0  4           0  0  0
    0.0000    0.0000    0.0000 C   0  0  0  0  0  4           0  0  0
   -2.0414    0.0031    1.0937 C   0  0  0  0  0  4           0  0  0
   -1.9843    0.0049   -1.2127 C   0  0  0  0  0  4           0  0  0
   -2.4057    0.0075    3.6113 C   0  0  0  0  0  4           0  0  0
   -1.2105   -0.5864    4.0471 C   0  0  0  0  0  4           0  0  0
   -1.6901    0.0454    6.3397 C   0  0  0  0  0  4           0  0  0
   -0.6090    0.0026   -1.2352 C   0  0  0  0  0  4           0  0  0
   -3.2323    0.6189    4.5685 C   0  0  0  0  0  4           0  0  0
   -2.8785    0.6365    5.9200 C   0  0  0  0  0  4           0  0  0
    1.9738    0.0000    1.3012 C   0  0  0  0  0  4           0  0  0
    3.4972    0.0000    1.1814 C   0  0  2  0  0  4           0  0  0
    4.1962    0.0000    2.5527 C   0  0  0  0  0  4           0  0  0
    3.9931   -1.1777    0.3291 C   0  0  0  0  0  4           0  0  0
    4.0879   -1.3414    3.2759 C   0  0  0  0  0  4           0  0  0
    3.8789   -2.5207    1.0481 C   0  0  0  0  0  4           0  0  0
    4.5780   -2.4936    2.4039 C   0  0  0  0  0  4           0  0  0
  1  6  1  0     0  0
  2  7  1  0     0  0
  2 16  1  0     0  0
  3  7  2  0     0  0
  3  8  1  0     0  0
  4  8  2  0     0  0
  4  9  1  0     0  0
  5  8  1  0     0  0
  5 10  1  0     0  0
  6 11  1  0     0  0
  6 12  2  0     0  0
  7 13  1  0     0  0
  9 13  2  0     0  0
 10 11  2  0     0  0
 10 14  1  0     0  0
 12 15  1  0     0  0
 14 15  2  0     0  0
 16 17  1  0     0  0
 17 18  1  0     0  0
 17 19  1  0     0  0
 18 20  1  0     0  0
 19 21  1  0     0  0
 20 22  1  0     0  0
 21 22  1  0     0  0
M  END
> <Compound >
29

> <standard_type>
pIC50

> <# Confs.>
25

> <canonical_smiles>
BrC1=CC=CC(NC2=NC=CC(OCC3CCCCC3)=N2)=C1

> <standard_relation>
=

> <predicted_activity_value>
4.534746563790513

> <actual_activity_value>
4.585026652029182

> <Publication ID>
nan

> <standard_units>
nM

> hash
10727315522417977215

$$$$
29_
XXILIB    08252103453D 0   0.00000     0.00000

 22 24  0     1  0            999 V2000
    0.7665    1.3700    5.9595 Br  0  0  0  0  0  1           0  0  0
    1.3870    0.0000    0.0000 O   0  0  0  0  0  2           0  0  0
   -0.6868    0.0000    1.1669 N   0  0  0  0  0  3           0  0  0
   -2.7179    0.0048   -0.0794 N   0  0  0  0  0  3           0  0  0
   -2.8002    0.0065    2.2716 N   0  0  0  0  0  3           0  0  0
   -0.8537    0.5685    5.3978 C   0  0  0  0  0  4           0  0  0
    0.0000    0.0000    0.0000 C   0  0  0  0  0  4           0  0  0
   -2.0414    0.0031    1.0937 C   0  0  0  0  0  4           0  0  0
   -1.9843    0.0049   -1.2127 C   0  0  0  0  0  4           0  0  0
   -2.4057    0.0075    3.6113 C   0  0  0  0  0  4           0  0  0
   -1.2077    0.5971    4.0454 C   0  0  0  0  0  4           0  0  0
   -1.6794   -0.0455    6.3366 C   0  0  0  0  0  4           0  0  0
   -0.6090    0.0026   -1.2352 C   0  0  0  0  0  4           0  0  0
   -3.2295   -0.6074    4.5686 C   0  0  0  0  0  4           0  0  0
   -2.8692   -0.6349    5.9182 C   0  0  0  0  0  4           0  0  0
    1.9738    0.0000    1.3012 C   0  0  0  0  0  4           0  0  0
    3.4972    0.0000    1.1814 C   0  0  2  0  0  4           0  0  0
    4.1962    0.0000    2.5527 C   0  0  0  0  0  4           0  0  0
    3.9931   -1.1777    0.3291 C   0  0  0  0  0  4           0  0  0
    4.0879   -1.3414    3.2759 C   0  0  0  0  0  4           0  0  0
    3.8789   -2.5207    1.0481 C   0  0  0  0  0  4           0  0  0
    4.5780   -2.4936    2.4039 C   0  0  0  0  0  4           0  0  0
  1  6  1  0     0  0
  2  7  1  0     0  0
  2 16  1  0     0  0
  3  7  2  0     0  0
  3  8  1  0     0  0
  4  8  2  0     0  0
  4  9  1  0     0  0
  5  8  1  0     0  0
  5 10  1  0     0  0
  6 11  1  0     0  0
  6 12  2  0     0  0
  7 13  1  0     0  0
  9 13  2  0     0  0
 10 11  2  0     0  0
 10 14  1  0     0  0
 12 15  1  0     0  0
 14 15  2  0     0  0
 16 17  1  0     0  0
 17 18  1  0     0  0
 17 19  1  0     0  0
 18 20  1  0     0  0
 19 21  1  0     0  0
 20 22  1  0     0  0
 21 22  1  0     0  0
M  END
> <Compound >
29

> <standard_type>
pIC50

> <# Confs.>
25

> <canonical_smiles>
BrC1=CC=CC(NC2=NC=CC(OCC3CCCCC3)=N2)=C1

> <standard_relation>
=

> <predicted_activity_value>
4.534746563790513

> <actual_activity_value>
4.585026652029182

> <Publication ID>
nan

> <standard_units>
nM

> hash
10727315522417977215

$$$$
29_
XXILIB    08252103453D 0   0.00000     0.00000

 22 24  0     1  0            999 V2000
    0.7557   -1.3709    5.9647 Br  0  0  0  0  0  1           0  0  0
    1.3870    0.0000    0.0000 O   0  0  0  0  0  2           0  0  0
   -0.6868    0.0000    1.1669 N   0  0  0  0  0  3           0  0  0
   -2.7179    0.0048   -0.0794 N   0  0  0  0  0  3           0  0  0
   -2.8002    0.0065    2.2716 N   0  0  0  0  0  3           0  0  0
   -0.8608   -0.5634    5.4007 C   0  0  0  0  0  4           0  0  0
    0.0000    0.0000    0.0000 C   0  0  0  0  0  4           0  0  0
   -2.0414    0.0031    1.0937 C   0  0  0  0  0  4           0  0  0
   -1.9843    0.0049   -1.2127 C   0  0  0  0  0  4           0  0  0
   -2.4057    0.0075    3.6113 C   0  0  0  0  0  4           0  0  0
   -1.2105   -0.5864    4.0471 C   0  0  0  0  0  4           0  0  0
   -1.6901    0.0454    6.3397 C   0  0  0  0  0  4           0  0  0
   -0.6090    0.0026   -1.2352 C   0  0  0  0  0  4           0  0  0
   -3.2323    0.6189    4.5685 C   0  0  0  0  0  4           0  0  0
   -2.8785    0.6365    5.9200 C   0  0  0  0  0  4           0  0  0
    1.9738    0.0000    1.3012 C   0  0  0  0  0  4           0  0  0
    3.4972    0.0000    1.1814 C   0  0  2  0  0  4           0  0  0
    4.0389   -1.2270    0.4283 C   0  0  0  0  0  4           0  0  0
    4.2050    0.1824    2.5349 C   0  0  0  0  0  4           0  0  0
    4.1503   -2.4911    1.2766 C   0  0  0  0  0  4           0  0  0
    4.3167   -1.0922    3.3677 C   0  0  0  0  0  4           0  0  0
    4.9199   -2.2397    2.5673 C   0  0  0  0  0  4           0  0  0
  1  6  1  0     0  0
  2  7  1  0     0  0
  2 16  1  0     0  0
  3  7  2  0     0  0
  3  8  1  0     0  0
  4  8  2  0     0  0
  4  9  1  0     0  0
  5  8  1  0     0  0
  5 10  1  0     0  0
  6 11  1  0     0  0
  6 12  2  0     0  0
  7 13  1  0     0  0
  9 13  2  0     0  0
 10 11  2  0     0  0
 10 14  1  0     0  0
 12 15  1  0     0  0
 14 15  2  0     0  0
 16 17  1  0     0  0
 17 18  1  0     0  0
 17 19  1  0     0  0
 18 20  1  0     0  0
 19 21  1  0     0  0
 20 22  1  0     0  0
 21 22  1  0     0  0
M  END
> <Compound >
29

> <standard_type>
pIC50

> <# Confs.>
25

> <canonical_smiles>
BrC1=CC=CC(NC2=NC=CC(OCC3CCCCC3)=N2)=C1

> <standard_relation>
=

> <predicted_activity_value>
4.534746563790513

> <actual_activity_value>
4.585026652029182

> <Publication ID>
nan

> <standard_units>
nM

> hash
10727315522417977215

$$$$
29_
XXILIB    08252103453D 0   0.00000     0.00000

 22 24  0     1  0            999 V2000
   -3.7876    1.3906    7.3005 Br  0  0  0  0  0  1           0  0  0
    1.3870    0.0000    0.0000 O   0  0  0  0  0  2           0  0  0
   -0.6868    0.0000    1.1669 N   0  0  0  0  0  3           0  0  0
   -2.7179    0.0048   -0.0794 N   0  0  0  0  0  3           0  0  0
   -2.8002    0.0065    2.2716 N   0  0  0  0  0  3           0  0  0
   -2.7344    0.5816    5.9516 C   0  0  0  0  0  4           0  0  0
    0.0000    0.0000    0.0000 C   0  0  0  0  0  4           0  0  0
   -2.0414    0.0031    1.0937 C   0  0  0  0  0  4           0  0  0
   -1.9843    0.0049   -1.2127 C   0  0  0  0  0  4           0  0  0
   -2.4057    0.0075    3.6113 C   0  0  0  0  0  4           0  0  0
   -3.1741    0.6026    4.6245 C   0  0  0  0  0  4           0  0  0
   -1.5283   -0.0262    6.2921 C   0  0  0  0  0  4           0  0  0
   -0.6090    0.0026   -1.2352 C   0  0  0  0  0  4           0  0  0
   -1.1920   -0.6029    3.9686 C   0  0  0  0  0  4           0  0  0
   -0.7568   -0.6184    5.2961 C   0  0  0  0  0  4           0  0  0
    1.9738    0.0000    1.3012 C   0  0  0  0  0  4           0  0  0
    3.4972    0.0000    1.1814 C   0  0  2  0  0  4           0  0  0
    4.0020   -1.2388    0.4243 C   0  0  0  0  0  4           0  0  0
    4.1702    0.0909    2.5605 C   0  0  0  0  0  4           0  0  0
    5.5246   -1.2420    0.3040 C   0  0  0  0  0  4           0  0  0
    5.6931    0.0897    2.4433 C   0  0  0  0  0  4           0  0  0
    6.1976   -1.1234    1.6680 C   0  0  0  0  0  4           0  0  0
  1  6  1  0     0  0
  2  7  1  0     0  0
  2 16  1  0     0  0
  3  7  2  0     0  0
  3  8  1  0     0  0
  4  8  2  0     0  0
  4  9  1  0     0  0
  5  8  1  0     0  0
  5 10  1  0     0  0
  6 11  1  0     0  0
  6 12  2  0     0  0
  7 13  1  0     0  0
  9 13  2  0     0  0
 10 11  2  0     0  0
 10 14  1  0     0  0
 12 15  1  0     0  0
 14 15  2  0     0  0
 16 17  1  0     0  0
 17 18  1  0     0  0
 17 19  1  0     0  0
 18 20  1  0     0  0
 19 21  1  0     0  0
 20 22  1  0     0  0
 21 22  1  0     0  0
M  END
> <Compound >
29

> <standard_type>
pIC50

> <# Confs.>
25

> <canonical_smiles>
BrC1=CC=CC(NC2=NC=CC(OCC3CCCCC3)=N2)=C1

> <standard_relation>
=

> <predicted_activity_value>
4.534746563790513

> <actual_activity_value>
4.585026652029182

> <Publication ID>
nan

> <standard_units>
nM

> hash
10727315522417977215

$$$$
29_
XXILIB    08252103453D 0   0.00000     0.00000

 22 24  0     1  0            999 V2000
    0.7665    1.3700    5.9595 Br  0  0  0  0  0  1           0  0  0
    1.3870    0.0000    0.0000 O   0  0  0  0  0  2           0  0  0
   -0.6868    0.0000    1.1669 N   0  0  0  0  0  3           0  0  0
   -2.7179    0.0048   -0.0794 N   0  0  0  0  0  3           0  0  0
   -2.8002    0.0065    2.2716 N   0  0  0  0  0  3           0  0  0
   -0.8537    0.5685    5.3978 C   0  0  0  0  0  4           0  0  0
    0.0000    0.0000    0.0000 C   0  0  0  0  0  4           0  0  0
   -2.0414    0.0031    1.0937 C   0  0  0  0  0  4           0  0  0
   -1.9843    0.0049   -1.2127 C   0  0  0  0  0  4           0  0  0
   -2.4057    0.0075    3.6113 C   0  0  0  0  0  4           0  0  0
   -1.2077    0.5971    4.0454 C   0  0  0  0  0  4           0  0  0
   -1.6794   -0.0455    6.3366 C   0  0  0  0  0  4           0  0  0
   -0.6090    0.0026   -1.2352 C   0  0  0  0  0  4           0  0  0
   -3.2295   -0.6074    4.5686 C   0  0  0  0  0  4           0  0  0
   -2.8692   -0.6349    5.9182 C   0  0  0  0  0  4           0  0  0
    1.9738    0.0000    1.3012 C   0  0  0  0  0  4           0  0  0
    3.4972    0.0000    1.1814 C   0  0  2  0  0  4           0  0  0
    4.0389   -1.2270    0.4283 C   0  0  0  0  0  4           0  0  0
    4.2050    0.1824    2.5349 C   0  0  0  0  0  4           0  0  0
    4.1503   -2.4911    1.2766 C   0  0  0  0  0  4           0  0  0
    4.3167   -1.0922    3.3677 C   0  0  0  0  0  4           0  0  0
    4.9199   -2.2397    2.5673 C   0  0  0  0  0  4           0  0  0
  1  6  1  0     0  0
  2  7  1  0     0  0
  2 16  1  0     0  0
  3  7  2  0     0  0
  3  8  1  0     0  0
  4  8  2  0     0  0
  4  9  1  0     0  0
  5  8  1  0     0  0
  5 10  1  0     0  0
  6 11  1  0     0  0
  6 12  2  0     0  0
  7 13  1  0     0  0
  9 13  2  0     0  0
 10 11  2  0     0  0
 10 14  1  0     0  0
 12 15  1  0     0  0
 14 15  2  0     0  0
 16 17  1  0     0  0
 17 18  1  0     0  0
 17 19  1  0     0  0
 18 20  1  0     0  0
 19 21  1  0     0  0
 20 22  1  0     0  0
 21 22  1  0     0  0
M  END
> <Compound >
29

> <standard_type>
pIC50

> <# Confs.>
25

> <canonical_smiles>
BrC1=CC=CC(NC2=NC=CC(OCC3CCCCC3)=N2)=C1

> <standard_relation>
=

> <predicted_activity_value>
4.534746563790513

> <actual_activity_value>
4.585026652029182

> <Publication ID>
nan

> <standard_units>
nM

> hash
10727315522417977215

$$$$
29_
XXILIB    08252103453D 0   0.00000     0.00000

 22 24  0     1  0            999 V2000
   -3.7984   -1.3504    7.3058 Br  0  0  0  0  0  1           0  0  0
    1.3870    0.0000    0.0000 O   0  0  0  0  0  2           0  0  0
   -0.6868    0.0000    1.1669 N   0  0  0  0  0  3           0  0  0
   -2.7179    0.0048   -0.0794 N   0  0  0  0  0  3           0  0  0
   -2.8002    0.0065    2.2716 N   0  0  0  0  0  3           0  0  0
   -2.7415   -0.5503    5.9545 C   0  0  0  0  0  4           0  0  0
    0.0000    0.0000    0.0000 C   0  0  0  0  0  4           0  0  0
   -2.0414    0.0031    1.0937 C   0  0  0  0  0  4           0  0  0
   -1.9843    0.0049   -1.2127 C   0  0  0  0  0  4           0  0  0
   -2.4057    0.0075    3.6113 C   0  0  0  0  0  4           0  0  0
   -3.1769   -0.5810    4.6262 C   0  0  0  0  0  4           0  0  0
   -1.5390    0.0647    6.2952 C   0  0  0  0  0  4           0  0  0
   -0.6090    0.0026   -1.2352 C   0  0  0  0  0  4           0  0  0
   -1.1947    0.6235    3.9685 C   0  0  0  0  0  4           0  0  0
   -0.7662    0.6529    5.2979 C   0  0  0  0  0  4           0  0  0
    1.9738    0.0000    1.3012 C   0  0  0  0  0  4           0  0  0
    3.4972    0.0000    1.1814 C   0  0  2  0  0  4           0  0  0
    4.0020   -1.2388    0.4243 C   0  0  0  0  0  4           0  0  0
    4.1702    0.0909    2.5605 C   0  0  0  0  0  4           0  0  0
    5.5246   -1.2420    0.3040 C   0  0  0  0  0  4           0  0  0
    5.6931    0.0897    2.4433 C   0  0  0  0  0  4           0  0  0
    6.1976   -1.1234    1.6680 C   0  0  0  0  0  4           0  0  0
  1  6  1  0     0  0
  2  7  1  0     0  0
  2 16  1  0     0  0
  3  7  2  0     0  0
  3  8  1  0     0  0
  4  8  2  0     0  0
  4  9  1  0     0  0
  5  8  1  0     0  0
  5 10  1  0     0  0
  6 11  1  0     0  0
  6 12  2  0     0  0
  7 13  1  0     0  0
  9 13  2  0     0  0
 10 11  2  0     0  0
 10 14  1  0     0  0
 12 15  1  0     0  0
 14 15  2  0     0  0
 16 17  1  0     0  0
 17 18  1  0     0  0
 17 19  1  0     0  0
 18 20  1  0     0  0
 19 21  1  0     0  0
 20 22  1  0     0  0
 21 22  1  0     0  0
M  END
> <Compound >
29

> <standard_type>
pIC50

> <# Confs.>
25

> <canonical_smiles>
BrC1=CC=CC(NC2=NC=CC(OCC3CCCCC3)=N2)=C1

> <standard_relation>
=

> <predicted_activity_value>
4.534746563790513

> <actual_activity_value>
4.585026652029182

> <Publication ID>
nan

> <standard_units>
nM

> hash
10727315522417977215

$$$$
29_
XXILIB    08252103453D 0   0.00000     0.00000

 22 24  0     1  0            999 V2000
   -3.7876    1.3906    7.3005 Br  0  0  0  0  0  1           0  0  0
    1.3870    0.0000    0.0000 O   0  0  0  0  0  2           0  0  0
   -0.6868    0.0000    1.1669 N   0  0  0  0  0  3           0  0  0
   -2.7179    0.0048   -0.0794 N   0  0  0  0  0  3           0  0  0
   -2.8002    0.0065    2.2716 N   0  0  0  0  0  3           0  0  0
   -2.7344    0.5816    5.9516 C   0  0  0  0  0  4           0  0  0
    0.0000    0.0000    0.0000 C   0  0  0  0  0  4           0  0  0
   -2.0414    0.0031    1.0937 C   0  0  0  0  0  4           0  0  0
   -1.9843    0.0049   -1.2127 C   0  0  0  0  0  4           0  0  0
   -2.4057    0.0075    3.6113 C   0  0  0  0  0  4           0  0  0
   -3.1741    0.6026    4.6245 C   0  0  0  0  0  4           0  0  0
   -1.5283   -0.0262    6.2921 C   0  0  0  0  0  4           0  0  0
   -0.6090    0.0026   -1.2352 C   0  0  0  0  0  4           0  0  0
   -1.1920   -0.6029    3.9686 C   0  0  0  0  0  4           0  0  0
   -0.7568   -0.6184    5.2961 C   0  0  0  0  0  4           0  0  0
    1.9738    0.0000    1.3012 C   0  0  0  0  0  4           0  0  0
    3.4972    0.0000    1.1814 C   0  0  2  0  0  4           0  0  0
    4.1702   -0.0000    2.5634 C   0  0  0  0  0  4           0  0  0
    3.9962    1.1909    0.3472 C   0  0  0  0  0  4           0  0  0
    5.6931    0.0011    2.4467 C   0  0  0  0  0  4           0  0  0
    5.5189    1.1936    0.2273 C   0  0  0  0  0  4           0  0  0
    6.1919    1.1651    1.5961 C   0  0  0  0  0  4           0  0  0
  1  6  1  0     0  0
  2  7  1  0     0  0
  2 16  1  0     0  0
  3  7  2  0     0  0
  3  8  1  0     0  0
  4  8  2  0     0  0
  4  9  1  0     0  0
  5  8  1  0     0  0
  5 10  1  0     0  0
  6 11  1  0     0  0
  6 12  2  0     0  0
  7 13  1  0     0  0
  9 13  2  0     0  0
 10 11  2  0     0  0
 10 14  1  0     0  0
 12 15  1  0     0  0
 14 15  2  0     0  0
 16 17  1  0     0  0
 17 18  1  0     0  0
 17 19  1  0     0  0
 18 20  1  0     0  0
 19 21  1  0     0  0
 20 22  1  0     0  0
 21 22  1  0     0  0
M  END
> <Compound >
29

> <standard_type>
pIC50

> <# Confs.>
25

> <canonical_smiles>
BrC1=CC=CC(NC2=NC=CC(OCC3CCCCC3)=N2)=C1

> <standard_relation>
=

> <predicted_activity_value>
4.534746563790513

> <actual_activity_value>
4.585026652029182

> <Publication ID>
nan

> <standard_units>
nM

> hash
10727315522417977215

$$$$
29_
XXILIB    08252103453D 0   0.00000     0.00000

 22 24  0     1  0            999 V2000
    0.7665    1.3700    5.9595 Br  0  0  0  0  0  1           0  0  0
    1.3870    0.0000    0.0000 O   0  0  0  0  0  2           0  0  0
   -0.6868    0.0000    1.1669 N   0  0  0  0  0  3           0  0  0
   -2.7179    0.0048   -0.0794 N   0  0  0  0  0  3           0  0  0
   -2.8002    0.0065    2.2716 N   0  0  0  0  0  3           0  0  0
   -0.8537    0.5685    5.3978 C   0  0  0  0  0  4           0  0  0
    0.0000    0.0000    0.0000 C   0  0  0  0  0  4           0  0  0
   -2.0414    0.0031    1.0937 C   0  0  0  0  0  4           0  0  0
   -1.9843    0.0049   -1.2127 C   0  0  0  0  0  4           0  0  0
   -2.4057    0.0075    3.6113 C   0  0  0  0  0  4           0  0  0
   -1.2077    0.5971    4.0454 C   0  0  0  0  0  4           0  0  0
   -1.6794   -0.0455    6.3366 C   0  0  0  0  0  4           0  0  0
   -0.6090    0.0026   -1.2352 C   0  0  0  0  0  4           0  0  0
   -3.2295   -0.6074    4.5686 C   0  0  0  0  0  4           0  0  0
   -2.8692   -0.6349    5.9182 C   0  0  0  0  0  4           0  0  0
    1.9738    0.0000    1.3012 C   0  0  0  0  0  4           0  0  0
    3.4972    0.0000    1.1814 C   0  0  2  0  0  4           0  0  0
    4.2055    0.0000    2.5469 C   0  0  0  0  0  4           0  0  0
    4.0275    1.1254    0.2767 C   0  0  0  0  0  4           0  0  0
    4.3022    1.3721    3.2089 C   0  0  0  0  0  4           0  0  0
    4.1271    2.4893    0.9554 C   0  0  0  0  0  4           0  0  0
    4.8964    2.4129    2.2682 C   0  0  0  0  0  4           0  0  0
  1  6  1  0     0  0
  2  7  1  0     0  0
  2 16  1  0     0  0
  3  7  2  0     0  0
  3  8  1  0     0  0
  4  8  2  0     0  0
  4  9  1  0     0  0
  5  8  1  0     0  0
  5 10  1  0     0  0
  6 11  1  0     0  0
  6 12  2  0     0  0
  7 13  1  0     0  0
  9 13  2  0     0  0
 10 11  2  0     0  0
 10 14  1  0     0  0
 12 15  1  0     0  0
 14 15  2  0     0  0
 16 17  1  0     0  0
 17 18  1  0     0  0
 17 19  1  0     0  0
 18 20  1  0     0  0
 19 21  1  0     0  0
 20 22  1  0     0  0
 21 22  1  0     0  0
M  END
> <Compound >
29

> <standard_type>
pIC50

> <# Confs.>
25

> <canonical_smiles>
BrC1=CC=CC(NC2=NC=CC(OCC3CCCCC3)=N2)=C1

> <standard_relation>
=

> <predicted_activity_value>
4.534746563790513

> <actual_activity_value>
4.585026652029182

> <Publication ID>
nan

> <standard_units>
nM

> hash
10727315522417977215

$$$$
29_
XXILIB    08252103453D 0   0.00000     0.00000

 22 24  0     1  0            999 V2000
   -3.7984   -1.3504    7.3058 Br  0  0  0  0  0  1           0  0  0
    1.3870    0.0000    0.0000 O   0  0  0  0  0  2           0  0  0
   -0.6868    0.0000    1.1669 N   0  0  0  0  0  3           0  0  0
   -2.7179    0.0048   -0.0794 N   0  0  0  0  0  3           0  0  0
   -2.8002    0.0065    2.2716 N   0  0  0  0  0  3           0  0  0
   -2.7415   -0.5503    5.9545 C   0  0  0  0  0  4           0  0  0
    0.0000    0.0000    0.0000 C   0  0  0  0  0  4           0  0  0
   -2.0414    0.0031    1.0937 C   0  0  0  0  0  4           0  0  0
   -1.9843    0.0049   -1.2127 C   0  0  0  0  0  4           0  0  0
   -2.4057    0.0075    3.6113 C   0  0  0  0  0  4           0  0  0
   -3.1769   -0.5810    4.6262 C   0  0  0  0  0  4           0  0  0
   -1.5390    0.0647    6.2952 C   0  0  0  0  0  4           0  0  0
   -0.6090    0.0026   -1.2352 C   0  0  0  0  0  4           0  0  0
   -1.1947    0.6235    3.9685 C   0  0  0  0  0  4           0  0  0
   -0.7662    0.6529    5.2979 C   0  0  0  0  0  4           0  0  0
    1.9738    0.0000    1.3012 C   0  0  0  0  0  4           0  0  0
    3.4972    0.0000    1.1814 C   0  0  2  0  0  4           0  0  0
    4.1702   -0.0000    2.5634 C   0  0  0  0  0  4           0  0  0
    3.9962    1.1909    0.3472 C   0  0  0  0  0  4           0  0  0
    5.6931    0.0011    2.4467 C   0  0  0  0  0  4           0  0  0
    5.5189    1.1936    0.2273 C   0  0  0  0  0  4           0  0  0
    6.1919    1.1651    1.5961 C   0  0  0  0  0  4           0  0  0
  1  6  1  0     0  0
  2  7  1  0     0  0
  2 16  1  0     0  0
  3  7  2  0     0  0
  3  8  1  0     0  0
  4  8  2  0     0  0
  4  9  1  0     0  0
  5  8  1  0     0  0
  5 10  1  0     0  0
  6 11  1  0     0  0
  6 12  2  0     0  0
  7 13  1  0     0  0
  9 13  2  0     0  0
 10 11  2  0     0  0
 10 14  1  0     0  0
 12 15  1  0     0  0
 14 15  2  0     0  0
 16 17  1  0     0  0
 17 18  1  0     0  0
 17 19  1  0     0  0
 18 20  1  0     0  0
 19 21  1  0     0  0
 20 22  1  0     0  0
 21 22  1  0     0  0
M  END
> <Compound >
29

> <standard_type>
pIC50

> <# Confs.>
25

> <canonical_smiles>
BrC1=CC=CC(NC2=NC=CC(OCC3CCCCC3)=N2)=C1

> <standard_relation>
=

> <predicted_activity_value>
4.534746563790513

> <actual_activity_value>
4.585026652029182

> <Publication ID>
nan

> <standard_units>
nM

> hash
10727315522417977215

$$$$
29_
XXILIB    08252103453D 0   0.00000     0.00000

 22 24  0     1  0            999 V2000
   -3.7876    1.3906    7.3005 Br  0  0  0  0  0  1           0  0  0
    1.3870    0.0000    0.0000 O   0  0  0  0  0  2           0  0  0
   -0.6868    0.0000    1.1669 N   0  0  0  0  0  3           0  0  0
   -2.7179    0.0048   -0.0794 N   0  0  0  0  0  3           0  0  0
   -2.8002    0.0065    2.2716 N   0  0  0  0  0  3           0  0  0
   -2.7344    0.5816    5.9516 C   0  0  0  0  0  4           0  0  0
    0.0000    0.0000    0.0000 C   0  0  0  0  0  4           0  0  0
   -2.0414    0.0031    1.0937 C   0  0  0  0  0  4           0  0  0
   -1.9843    0.0049   -1.2127 C   0  0  0  0  0  4           0  0  0
   -2.4057    0.0075    3.6113 C   0  0  0  0  0  4           0  0  0
   -3.1741    0.6026    4.6245 C   0  0  0  0  0  4           0  0  0
   -1.5283   -0.0262    6.2921 C   0  0  0  0  0  4           0  0  0
   -0.6090    0.0026   -1.2352 C   0  0  0  0  0  4           0  0  0
   -1.1920   -0.6029    3.9686 C   0  0  0  0  0  4           0  0  0
   -0.7568   -0.6184    5.2961 C   0  0  0  0  0  4           0  0  0
    1.9738    0.0000    1.3012 C   0  0  0  0  0  4           0  0  0
    3.4972    0.0000    1.1814 C   0  0  2  0  0  4           0  0  0
    4.0020    1.2388    0.4243 C   0  0  0  0  0  4           0  0  0
    4.0085   -1.2818    0.5042 C   0  0  0  0  0  4           0  0  0
    5.5245    1.2409    0.3021 C   0  0  0  0  0  4           0  0  0
    5.5310   -1.2833    0.3822 C   0  0  0  0  0  4           0  0  0
    6.0394   -0.0416   -0.3438 C   0  0  0  0  0  4           0  0  0
  1  6  1  0     0  0
  2  7  1  0     0  0
  2 16  1  0     0  0
  3  7  2  0     0  0
  3  8  1  0     0  0
  4  8  2  0     0  0
  4  9  1  0     0  0
  5  8  1  0     0  0
  5 10  1  0     0  0
  6 11  1  0     0  0
  6 12  2  0     0  0
  7 13  1  0     0  0
  9 13  2  0     0  0
 10 11  2  0     0  0
 10 14  1  0     0  0
 12 15  1  0     0  0
 14 15  2  0     0  0
 16 17  1  0     0  0
 17 18  1  0     0  0
 17 19  1  0     0  0
 18 20  1  0     0  0
 19 21  1  0     0  0
 20 22  1  0     0  0
 21 22  1  0     0  0
M  END
> <Compound >
29

> <standard_type>
pIC50

> <# Confs.>
25

> <canonical_smiles>
BrC1=CC=CC(NC2=NC=CC(OCC3CCCCC3)=N2)=C1

> <standard_relation>
=

> <predicted_activity_value>
4.534746563790513

> <actual_activity_value>
4.585026652029182

> <Publication ID>
nan

> <standard_units>
nM

> hash
10727315522417977215

$$$$
29_
XXILIB    08252103453D 0   0.00000     0.00000

 22 24  0     1  0            999 V2000
   -3.7984   -1.3504    7.3058 Br  0  0  0  0  0  1           0  0  0
    1.3870    0.0000    0.0000 O   0  0  0  0  0  2           0  0  0
   -0.6868    0.0000    1.1669 N   0  0  0  0  0  3           0  0  0
   -2.7179    0.0048   -0.0794 N   0  0  0  0  0  3           0  0  0
   -2.8002    0.0065    2.2716 N   0  0  0  0  0  3           0  0  0
   -2.7415   -0.5503    5.9545 C   0  0  0  0  0  4           0  0  0
    0.0000    0.0000    0.0000 C   0  0  0  0  0  4           0  0  0
   -2.0414    0.0031    1.0937 C   0  0  0  0  0  4           0  0  0
   -1.9843    0.0049   -1.2127 C   0  0  0  0  0  4           0  0  0
   -2.4057    0.0075    3.6113 C   0  0  0  0  0  4           0  0  0
   -3.1769   -0.5810    4.6262 C   0  0  0  0  0  4           0  0  0
   -1.5390    0.0647    6.2952 C   0  0  0  0  0  4           0  0  0
   -0.6090    0.0026   -1.2352 C   0  0  0  0  0  4           0  0  0
   -1.1947    0.6235    3.9685 C   0  0  0  0  0  4           0  0  0
   -0.7662    0.6529    5.2979 C   0  0  0  0  0  4           0  0  0
    1.9738    0.0000    1.3012 C   0  0  0  0  0  4           0  0  0
    3.4972    0.0000    1.1814 C   0  0  2  0  0  4           0  0  0
    4.0020    1.2388    0.4243 C   0  0  0  0  0  4           0  0  0
    4.0085   -1.2818    0.5042 C   0  0  0  0  0  4           0  0  0
    5.5245    1.2409    0.3021 C   0  0  0  0  0  4           0  0  0
    5.5310   -1.2833    0.3822 C   0  0  0  0  0  4           0  0  0
    6.0394   -0.0416   -0.3438 C   0  0  0  0  0  4           0  0  0
  1  6  1  0     0  0
  2  7  1  0     0  0
  2 16  1  0     0  0
  3  7  2  0     0  0
  3  8  1  0     0  0
  4  8  2  0     0  0
  4  9  1  0     0  0
  5  8  1  0     0  0
  5 10  1  0     0  0
  6 11  1  0     0  0
  6 12  2  0     0  0
  7 13  1  0     0  0
  9 13  2  0     0  0
 10 11  2  0     0  0
 10 14  1  0     0  0
 12 15  1  0     0  0
 14 15  2  0     0  0
 16 17  1  0     0  0
 17 18  1  0     0  0
 17 19  1  0     0  0
 18 20  1  0     0  0
 19 21  1  0     0  0
 20 22  1  0     0  0
 21 22  1  0     0  0
M  END
> <Compound >
29

> <standard_type>
pIC50

> <# Confs.>
25

> <canonical_smiles>
BrC1=CC=CC(NC2=NC=CC(OCC3CCCCC3)=N2)=C1

> <standard_relation>
=

> <predicted_activity_value>
4.534746563790513

> <actual_activity_value>
4.585026652029182

> <Publication ID>
nan

> <standard_units>
nM

> hash
10727315522417977215

$$$$
29_
XXILIB    08252103453D 0   0.00000     0.00000

 22 24  0     1  0            999 V2000
    0.7557   -1.3709    5.9647 Br  0  0  0  0  0  1           0  0  0
    1.3870    0.0000    0.0000 O   0  0  0  0  0  2           0  0  0
   -0.6868    0.0000    1.1669 N   0  0  0  0  0  3           0  0  0
   -2.7179    0.0048   -0.0794 N   0  0  0  0  0  3           0  0  0
   -2.8002    0.0065    2.2716 N   0  0  0  0  0  3           0  0  0
   -0.8608   -0.5634    5.4007 C   0  0  0  0  0  4           0  0  0
    0.0000    0.0000    0.0000 C   0  0  0  0  0  4           0  0  0
   -2.0414    0.0031    1.0937 C   0  0  0  0  0  4           0  0  0
   -1.9843    0.0049   -1.2127 C   0  0  0  0  0  4           0  0  0
   -2.4057    0.0075    3.6113 C   0  0  0  0  0  4           0  0  0
   -1.2105   -0.5864    4.0471 C   0  0  0  0  0  4           0  0  0
   -1.6901    0.0454    6.3397 C   0  0  0  0  0  4           0  0  0
   -0.6090    0.0026   -1.2352 C   0  0  0  0  0  4           0  0  0
   -3.2323    0.6189    4.5685 C   0  0  0  0  0  4           0  0  0
   -2.8785    0.6365    5.9200 C   0  0  0  0  0  4           0  0  0
    1.9738    0.0000    1.3012 C   0  0  0  0  0  4           0  0  0
    3.4972    0.0000    1.1814 C   0  0  2  0  0  4           0  0  0
    4.2055    0.0000    2.5469 C   0  0  0  0  0  4           0  0  0
    4.0275    1.1254    0.2767 C   0  0  0  0  0  4           0  0  0
    4.3022    1.3721    3.2089 C   0  0  0  0  0  4           0  0  0
    4.1271    2.4893    0.9554 C   0  0  0  0  0  4           0  0  0
    4.8964    2.4129    2.2682 C   0  0  0  0  0  4           0  0  0
  1  6  1  0     0  0
  2  7  1  0     0  0
  2 16  1  0     0  0
  3  7  2  0     0  0
  3  8  1  0     0  0
  4  8  2  0     0  0
  4  9  1  0     0  0
  5  8  1  0     0  0
  5 10  1  0     0  0
  6 11  1  0     0  0
  6 12  2  0     0  0
  7 13  1  0     0  0
  9 13  2  0     0  0
 10 11  2  0     0  0
 10 14  1  0     0  0
 12 15  1  0     0  0
 14 15  2  0     0  0
 16 17  1  0     0  0
 17 18  1  0     0  0
 17 19  1  0     0  0
 18 20  1  0     0  0
 19 21  1  0     0  0
 20 22  1  0     0  0
 21 22  1  0     0  0
M  END
> <Compound >
29

> <standard_type>
pIC50

> <# Confs.>
25

> <canonical_smiles>
BrC1=CC=CC(NC2=NC=CC(OCC3CCCCC3)=N2)=C1

> <standard_relation>
=

> <predicted_activity_value>
4.534746563790513

> <actual_activity_value>
4.585026652029182

> <Publication ID>
nan

> <standard_units>
nM

> hash
10727315522417977215

$$$$
29_
XXILIB    08252103453D 0   0.00000     0.00000

 22 24  0     1  0            999 V2000
   -7.6293    1.3898    0.5547 Br  0  0  0  0  0  1           0  0  0
    1.3870    0.0000    0.0000 O   0  0  0  0  0  2           0  0  0
   -0.6868    0.0000    1.1669 N   0  0  0  0  0  3           0  0  0
   -2.7179    0.0048   -0.0794 N   0  0  0  0  0  3           0  0  0
   -2.8002    0.0065    2.2716 N   0  0  0  0  0  3           0  0  0
   -6.4496    0.5843    1.7968 C   0  0  0  0  0  4           0  0  0
    0.0000    0.0000    0.0000 C   0  0  0  0  0  4           0  0  0
   -2.0414    0.0031    1.0937 C   0  0  0  0  0  4           0  0  0
   -1.9843    0.0049   -1.2127 C   0  0  0  0  0  4           0  0  0
   -4.1832    0.0100    2.4661 C   0  0  0  0  0  4           0  0  0
   -5.0725    0.6026    1.5555 C   0  0  0  0  0  4           0  0  0
   -6.9634   -0.0183    2.9426 C   0  0  0  0  0  4           0  0  0
   -0.6090    0.0026   -1.2352 C   0  0  0  0  0  4           0  0  0
   -4.7147   -0.5951    3.6171 C   0  0  0  0  0  4           0  0  0
   -6.0916   -0.6080    3.8537 C   0  0  0  0  0  4           0  0  0
    1.9738    0.0000    1.3012 C   0  0  0  0  0  4           0  0  0
    3.4972    0.0000    1.1814 C   0  0  2  0  0  4           0  0  0
    4.0020   -1.2388    0.4243 C   0  0  0  0  0  4           0  0  0
    4.1702    0.0909    2.5605 C   0  0  0  0  0  4           0  0  0
    5.5246   -1.2420    0.3040 C   0  0  0  0  0  4           0  0  0
    5.6931    0.0897    2.4433 C   0  0  0  0  0  4           0  0  0
    6.1976   -1.1234    1.6680 C   0  0  0  0  0  4           0  0  0
  1  6  1  0     0  0
  2  7  1  0     0  0
  2 16  1  0     0  0
  3  7  2  0     0  0
  3  8  1  0     0  0
  4  8  2  0     0  0
  4  9  1  0     0  0
  5  8  1  0     0  0
  5 10  1  0     0  0
  6 11  1  0     0  0
  6 12  2  0     0  0
  7 13  1  0     0  0
  9 13  2  0     0  0
 10 11  2  0     0  0
 10 14  1  0     0  0
 12 15  1  0     0  0
 14 15  2  0     0  0
 16 17  1  0     0  0
 17 18  1  0     0  0
 17 19  1  0     0  0
 18 20  1  0     0  0
 19 21  1  0     0  0
 20 22  1  0     0  0
 21 22  1  0     0  0
M  END
> <Compound >
29

> <standard_type>
pIC50

> <# Confs.>
25

> <canonical_smiles>
BrC1=CC=CC(NC2=NC=CC(OCC3CCCCC3)=N2)=C1

> <standard_relation>
=

> <predicted_activity_value>
4.534746563790513

> <actual_activity_value>
4.585026652029182

> <Publication ID>
nan

> <standard_units>
nM

> hash
10727315522417977215

$$$$
29_
XXILIB    08252103453D 0   0.00000     0.00000

 22 24  0     1  0            999 V2000
   -7.6363   -1.3511    0.5541 Br  0  0  0  0  0  1           0  0  0
    1.3870    0.0000    0.0000 O   0  0  0  0  0  2           0  0  0
   -0.6868    0.0000    1.1669 N   0  0  0  0  0  3           0  0  0
   -2.7179    0.0048   -0.0794 N   0  0  0  0  0  3           0  0  0
   -2.8002    0.0065    2.2716 N   0  0  0  0  0  3           0  0  0
   -6.4529   -0.5476    1.7938 C   0  0  0  0  0  4           0  0  0
    0.0000    0.0000    0.0000 C   0  0  0  0  0  4           0  0  0
   -2.0414    0.0031    1.0937 C   0  0  0  0  0  4           0  0  0
   -1.9843    0.0049   -1.2127 C   0  0  0  0  0  4           0  0  0
   -4.1832    0.0100    2.4661 C   0  0  0  0  0  4           0  0  0
   -5.0753   -0.5809    1.5573 C   0  0  0  0  0  4           0  0  0
   -6.9648    0.0725    2.9312 C   0  0  0  0  0  4           0  0  0
   -0.6090    0.0026   -1.2352 C   0  0  0  0  0  4           0  0  0
   -4.7126    0.6312    3.6095 C   0  0  0  0  0  4           0  0  0
   -6.0904    0.6633    3.8391 C   0  0  0  0  0  4           0  0  0
    1.9738    0.0000    1.3012 C   0  0  0  0  0  4           0  0  0
    3.4972    0.0000    1.1814 C   0  0  2  0  0  4           0  0  0
    4.0020   -1.2388    0.4243 C   0  0  0  0  0  4           0  0  0
    4.1702    0.0909    2.5605 C   0  0  0  0  0  4           0  0  0
    5.5246   -1.2420    0.3040 C   0  0  0  0  0  4           0  0  0
    5.6931    0.0897    2.4433 C   0  0  0  0  0  4           0  0  0
    6.1976   -1.1234    1.6680 C   0  0  0  0  0  4           0  0  0
  1  6  1  0     0  0
  2  7  1  0     0  0
  2 16  1  0     0  0
  3  7  2  0     0  0
  3  8  1  0     0  0
  4  8  2  0     0  0
  4  9  1  0     0  0
  5  8  1  0     0  0
  5 10  1  0     0  0
  6 11  1  0     0  0
  6 12  2  0     0  0
  7 13  1  0     0  0
  9 13  2  0     0  0
 10 11  2  0     0  0
 10 14  1  0     0  0
 12 15  1  0     0  0
 14 15  2  0     0  0
 16 17  1  0     0  0
 17 18  1  0     0  0
 17 19  1  0     0  0
 18 20  1  0     0  0
 19 21  1  0     0  0
 20 22  1  0     0  0
 21 22  1  0     0  0
M  END
> <Compound >
29

> <standard_type>
pIC50

> <# Confs.>
25

> <canonical_smiles>
BrC1=CC=CC(NC2=NC=CC(OCC3CCCCC3)=N2)=C1

> <standard_relation>
=

> <predicted_activity_value>
4.534746563790513

> <actual_activity_value>
4.585026652029182

> <Publication ID>
nan

> <standard_units>
nM

> hash
10727315522417977215

$$$$
29_
XXILIB    08252103453D 0   0.00000     0.00000

 22 24  0     1  0            999 V2000
   -7.6293    1.3898    0.5547 Br  0  0  0  0  0  1           0  0  0
    1.3870    0.0000    0.0000 O   0  0  0  0  0  2           0  0  0
   -0.6868    0.0000    1.1669 N   0  0  0  0  0  3           0  0  0
   -2.7179    0.0048   -0.0794 N   0  0  0  0  0  3           0  0  0
   -2.8002    0.0065    2.2716 N   0  0  0  0  0  3           0  0  0
   -6.4496    0.5843    1.7968 C   0  0  0  0  0  4           0  0  0
    0.0000    0.0000    0.0000 C   0  0  0  0  0  4           0  0  0
   -2.0414    0.0031    1.0937 C   0  0  0  0  0  4           0  0  0
   -1.9843    0.0049   -1.2127 C   0  0  0  0  0  4           0  0  0
   -4.1832    0.0100    2.4661 C   0  0  0  0  0  4           0  0  0
   -5.0725    0.6026    1.5555 C   0  0  0  0  0  4           0  0  0
   -6.9634   -0.0183    2.9426 C   0  0  0  0  0  4           0  0  0
   -0.6090    0.0026   -1.2352 C   0  0  0  0  0  4           0  0  0
   -4.7147   -0.5951    3.6171 C   0  0  0  0  0  4           0  0  0
   -6.0916   -0.6080    3.8537 C   0  0  0  0  0  4           0  0  0
    1.9738    0.0000    1.3012 C   0  0  0  0  0  4           0  0  0
    3.4972    0.0000    1.1814 C   0  0  2  0  0  4           0  0  0
    4.0020    1.2388    0.4243 C   0  0  0  0  0  4           0  0  0
    4.0085   -1.2818    0.5042 C   0  0  0  0  0  4           0  0  0
    5.5245    1.2409    0.3021 C   0  0  0  0  0  4           0  0  0
    5.5310   -1.2833    0.3822 C   0  0  0  0  0  4           0  0  0
    6.0394   -0.0416   -0.3438 C   0  0  0  0  0  4           0  0  0
  1  6  1  0     0  0
  2  7  1  0     0  0
  2 16  1  0     0  0
  3  7  2  0     0  0
  3  8  1  0     0  0
  4  8  2  0     0  0
  4  9  1  0     0  0
  5  8  1  0     0  0
  5 10  1  0     0  0
  6 11  1  0     0  0
  6 12  2  0     0  0
  7 13  1  0     0  0
  9 13  2  0     0  0
 10 11  2  0     0  0
 10 14  1  0     0  0
 12 15  1  0     0  0
 14 15  2  0     0  0
 16 17  1  0     0  0
 17 18  1  0     0  0
 17 19  1  0     0  0
 18 20  1  0     0  0
 19 21  1  0     0  0
 20 22  1  0     0  0
 21 22  1  0     0  0
M  END
> <Compound >
29

> <standard_type>
pIC50

> <# Confs.>
25

> <canonical_smiles>
BrC1=CC=CC(NC2=NC=CC(OCC3CCCCC3)=N2)=C1

> <standard_relation>
=

> <predicted_activity_value>
4.534746563790513

> <actual_activity_value>
4.585026652029182

> <Publication ID>
nan

> <standard_units>
nM

> hash
10727315522417977215

$$$$
29_
XXILIB    08252103453D 0   0.00000     0.00000

 22 24  0     1  0            999 V2000
   -7.6293    1.3898    0.5547 Br  0  0  0  0  0  1           0  0  0
    1.3870    0.0000    0.0000 O   0  0  0  0  0  2           0  0  0
   -0.6868    0.0000    1.1669 N   0  0  0  0  0  3           0  0  0
   -2.7179    0.0048   -0.0794 N   0  0  0  0  0  3           0  0  0
   -2.8002    0.0065    2.2716 N   0  0  0  0  0  3           0  0  0
   -6.4496    0.5843    1.7968 C   0  0  0  0  0  4           0  0  0
    0.0000    0.0000    0.0000 C   0  0  0  0  0  4           0  0  0
   -2.0414    0.0031    1.0937 C   0  0  0  0  0  4           0  0  0
   -1.9843    0.0049   -1.2127 C   0  0  0  0  0  4           0  0  0
   -4.1832    0.0100    2.4661 C   0  0  0  0  0  4           0  0  0
   -5.0725    0.6026    1.5555 C   0  0  0  0  0  4           0  0  0
   -6.9634   -0.0183    2.9426 C   0  0  0  0  0  4           0  0  0
   -0.6090    0.0026   -1.2352 C   0  0  0  0  0  4           0  0  0
   -4.7147   -0.5951    3.6171 C   0  0  0  0  0  4           0  0  0
   -6.0916   -0.6080    3.8537 C   0  0  0  0  0  4           0  0  0
    1.9738    0.0000    1.3012 C   0  0  0  0  0  4           0  0  0
    3.4972    0.0000    1.1814 C   0  0  2  0  0  4           0  0  0
    4.1702   -0.0000    2.5634 C   0  0  0  0  0  4           0  0  0
    3.9962    1.1909    0.3472 C   0  0  0  0  0  4           0  0  0
    5.6931    0.0011    2.4467 C   0  0  0  0  0  4           0  0  0
    5.5189    1.1936    0.2273 C   0  0  0  0  0  4           0  0  0
    6.1919    1.1651    1.5961 C   0  0  0  0  0  4           0  0  0
  1  6  1  0     0  0
  2  7  1  0     0  0
  2 16  1  0     0  0
  3  7  2  0     0  0
  3  8  1  0     0  0
  4  8  2  0     0  0
  4  9  1  0     0  0
  5  8  1  0     0  0
  5 10  1  0     0  0
  6 11  1  0     0  0
  6 12  2  0     0  0
  7 13  1  0     0  0
  9 13  2  0     0  0
 10 11  2  0     0  0
 10 14  1  0     0  0
 12 15  1  0     0  0
 14 15  2  0     0  0
 16 17  1  0     0  0
 17 18  1  0     0  0
 17 19  1  0     0  0
 18 20  1  0     0  0
 19 21  1  0     0  0
 20 22  1  0     0  0
 21 22  1  0     0  0
M  END
> <Compound >
29

> <standard_type>
pIC50

> <# Confs.>
25

> <canonical_smiles>
BrC1=CC=CC(NC2=NC=CC(OCC3CCCCC3)=N2)=C1

> <standard_relation>
=

> <predicted_activity_value>
4.534746563790513

> <actual_activity_value>
4.585026652029182

> <Publication ID>
nan

> <standard_units>
nM

> hash
10727315522417977215

$$$$
29_
XXILIB    08252103453D 0   0.00000     0.00000

 22 24  0     1  0            999 V2000
   -7.6363   -1.3511    0.5541 Br  0  0  0  0  0  1           0  0  0
    1.3870    0.0000    0.0000 O   0  0  0  0  0  2           0  0  0
   -0.6868    0.0000    1.1669 N   0  0  0  0  0  3           0  0  0
   -2.7179    0.0048   -0.0794 N   0  0  0  0  0  3           0  0  0
   -2.8002    0.0065    2.2716 N   0  0  0  0  0  3           0  0  0
   -6.4529   -0.5476    1.7938 C   0  0  0  0  0  4           0  0  0
    0.0000    0.0000    0.0000 C   0  0  0  0  0  4           0  0  0
   -2.0414    0.0031    1.0937 C   0  0  0  0  0  4           0  0  0
   -1.9843    0.0049   -1.2127 C   0  0  0  0  0  4           0  0  0
   -4.1832    0.0100    2.4661 C   0  0  0  0  0  4           0  0  0
   -5.0753   -0.5809    1.5573 C   0  0  0  0  0  4           0  0  0
   -6.9648    0.0725    2.9312 C   0  0  0  0  0  4           0  0  0
   -0.6090    0.0026   -1.2352 C   0  0  0  0  0  4           0  0  0
   -4.7126    0.6312    3.6095 C   0  0  0  0  0  4           0  0  0
   -6.0904    0.6633    3.8391 C   0  0  0  0  0  4           0  0  0
    1.9738    0.0000    1.3012 C   0  0  0  0  0  4           0  0  0
    3.4972    0.0000    1.1814 C   0  0  2  0  0  4           0  0  0
    4.0020    1.2388    0.4243 C   0  0  0  0  0  4           0  0  0
    4.0085   -1.2818    0.5042 C   0  0  0  0  0  4           0  0  0
    5.5245    1.2409    0.3021 C   0  0  0  0  0  4           0  0  0
    5.5310   -1.2833    0.3822 C   0  0  0  0  0  4           0  0  0
    6.0394   -0.0416   -0.3438 C   0  0  0  0  0  4           0  0  0
  1  6  1  0     0  0
  2  7  1  0     0  0
  2 16  1  0     0  0
  3  7  2  0     0  0
  3  8  1  0     0  0
  4  8  2  0     0  0
  4  9  1  0     0  0
  5  8  1  0     0  0
  5 10  1  0     0  0
  6 11  1  0     0  0
  6 12  2  0     0  0
  7 13  1  0     0  0
  9 13  2  0     0  0
 10 11  2  0     0  0
 10 14  1  0     0  0
 12 15  1  0     0  0
 14 15  2  0     0  0
 16 17  1  0     0  0
 17 18  1  0     0  0
 17 19  1  0     0  0
 18 20  1  0     0  0
 19 21  1  0     0  0
 20 22  1  0     0  0
 21 22  1  0     0  0
M  END
> <Compound >
29

> <standard_type>
pIC50

> <# Confs.>
25

> <canonical_smiles>
BrC1=CC=CC(NC2=NC=CC(OCC3CCCCC3)=N2)=C1

> <standard_relation>
=

> <predicted_activity_value>
4.534746563790513

> <actual_activity_value>
4.585026652029182

> <Publication ID>
nan

> <standard_units>
nM

> hash
10727315522417977215

$$$$
25_
XXILIB    08252103453D 0   0.00000     0.00000

 25 27  0     1  0            999 V2000
   -0.5811   -0.5491   -3.3506 O   0  0  0  0  0  2           0  0  0
    1.3872    0.0000   -0.0000 O   0  0  0  0  0  2           0  0  0
   -6.4265   -1.1871    5.2760 O   0  0  0  0  0  2           0  0  0
   -0.6678   -0.0000    1.1796 N   0  0  0  0  0  3           0  0  0
   -2.7261    0.0231   -0.0188 N   0  0  0  0  0  3           0  0  0
    0.0245    0.0159   -2.4322 N   0  0  0  0  0  3           0  0  0
   -2.6997    0.0072    2.3643 N   0  0  0  0  0  3           0  0  0
    0.0000    0.0000   -0.0000 C   0  0  0  0  0  4           0  0  0
   -5.8854   -0.6184    4.1581 C   0  0  0  0  0  4           0  0  0
   -2.0218    0.0097    1.1382 C   0  0  0  0  0  4           0  0  0
   -2.0208    0.0208   -1.1703 C   0  0  0  0  0  4           0  0  0
   -0.6410    0.0012   -1.2281 C   0  0  0  0  0  4           0  0  0
   -4.0668    0.0150    2.6512 C   0  0  0  0  0  4           0  0  0
   -4.5233   -0.6035    3.8304 C   0  0  0  0  0  4           0  0  0
   -6.8031   -0.0116    3.2979 C   0  0  0  0  0  4           0  0  0
   -5.0094    0.6176    1.8052 C   0  0  0  0  0  4           0  0  0
   -6.3672    0.6037    2.1267 C   0  0  0  0  0  4           0  0  0
    1.9728    0.0000    1.3020 C   0  0  0  0  0  4           0  0  0
   -5.4929   -1.8069    6.1571 C   0  0  0  0  0  4           0  0  0
    3.4920    0.0000    1.1550 C   0  0  1  0  0  4           0  0  0
    4.1646   -0.0000    2.5349 C   0  0  0  0  0  4           0  0  0
    3.9737   -1.1943    0.3133 C   0  0  0  0  0  4           0  0  0
    5.6868   -0.0434    2.4237 C   0  0  0  0  0  4           0  0  0
    5.4970   -1.2375    0.2109 C   0  0  0  0  0  4           0  0  0
    6.1562   -1.2283    1.5861 C   0  0  0  0  0  4           0  0  0
  1  6  2  0     0  0
  2  8  1  0     0  0
  2 18  1  0     0  0
  3  9  1  0     0  0
  3 19  1  0     0  0
  4  8  2  0     0  0
  4 10  1  0     0  0
  5 10  2  0     0  0
  5 11  1  0     0  0
  6 12  1  0     0  0
  7 10  1  0     0  0
  7 13  1  0     0  0
  8 12  1  0     0  0
  9 14  1  0     0  0
  9 15  2  0     0  0
 11 12  2  0     0  0
 13 14  2  0     0  0
 13 16  1  0     0  0
 15 17  1  0     0  0
 16 17  2  0     0  0
 18 20  1  0     0  0
 20 21  1  0     0  0
 20 22  1  0     0  0
 21 23  1  0     0  0
 22 24  1  0     0  0
 23 25  1  0     0  0
 24 25  1  0     0  0
M  END
> <Compound >
25

> <standard_type>
pIC50

> <# Confs.>
25

> <canonical_smiles>
O=NC(C(OCC1CCCCC1)=N2)=CN=C2NC3=CC(OC)=CC=C3

> <standard_relation>
=

> <predicted_activity_value>
6.055024091587952

> <actual_activity_value>
6.468521082957745

> <Publication ID>
nan

> <standard_units>
nM

> hash
10296047565698218180

$$$$
25_
XXILIB    08252103453D 0   0.00000     0.00000

 25 27  0     1  0            999 V2000
   -0.5811   -0.5491   -3.3506 O   0  0  0  0  0  2           0  0  0
    1.3872    0.0000   -0.0000 O   0  0  0  0  0  2           0  0  0
   -6.4106    1.2268    5.2857 O   0  0  0  0  0  2           0  0  0
   -0.6678   -0.0000    1.1796 N   0  0  0  0  0  3           0  0  0
   -2.7261    0.0231   -0.0188 N   0  0  0  0  0  3           0  0  0
    0.0245    0.0159   -2.4322 N   0  0  0  0  0  3           0  0  0
   -2.6997    0.0072    2.3643 N   0  0  0  0  0  3           0  0  0
    0.0000    0.0000   -0.0000 C   0  0  0  0  0  4           0  0  0
   -5.8768    0.6578    4.1646 C   0  0  0  0  0  4           0  0  0
   -2.0218    0.0097    1.1382 C   0  0  0  0  0  4           0  0  0
   -2.0208    0.0208   -1.1703 C   0  0  0  0  0  4           0  0  0
   -0.6410    0.0012   -1.2281 C   0  0  0  0  0  4           0  0  0
   -4.0668    0.0150    2.6512 C   0  0  0  0  0  4           0  0  0
   -4.5147    0.6259    3.8377 C   0  0  0  0  0  4           0  0  0
   -6.8024    0.0710    3.2991 C   0  0  0  0  0  4           0  0  0
   -5.0174   -0.5663    1.7993 C   0  0  0  0  0  4           0  0  0
   -6.3748   -0.5383    2.1217 C   0  0  0  0  0  4           0  0  0
    1.9728    0.0000    1.3020 C   0  0  0  0  0  4           0  0  0
   -5.4690    1.8277    6.1715 C   0  0  0  0  0  4           0  0  0
    3.4920    0.0000    1.1550 C   0  0  1  0  0  4           0  0  0
    4.1646   -0.0000    2.5349 C   0  0  0  0  0  4           0  0  0
    3.9737   -1.1943    0.3133 C   0  0  0  0  0  4           0  0  0
    5.6868   -0.0434    2.4237 C   0  0  0  0  0  4           0  0  0
    5.4970   -1.2375    0.2109 C   0  0  0  0  0  4           0  0  0
    6.1562   -1.2283    1.5861 C   0  0  0  0  0  4           0  0  0
  1  6  2  0     0  0
  2  8  1  0     0  0
  2 18  1  0     0  0
  3  9  1  0     0  0
  3 19  1  0     0  0
  4  8  2  0     0  0
  4 10  1  0     0  0
  5 10  2  0     0  0
  5 11  1  0     0  0
  6 12  1  0     0  0
  7 10  1  0     0  0
  7 13  1  0     0  0
  8 12  1  0     0  0
  9 14  1  0     0  0
  9 15  2  0     0  0
 11 12  2  0     0  0
 13 14  2  0     0  0
 13 16  1  0     0  0
 15 17  1  0     0  0
 16 17  2  0     0  0
 18 20  1  0     0  0
 20 21  1  0     0  0
 20 22  1  0     0  0
 21 23  1  0     0  0
 22 24  1  0     0  0
 23 25  1  0     0  0
 24 25  1  0     0  0
M  END
> <Compound >
25

> <standard_type>
pIC50

> <# Confs.>
25

> <canonical_smiles>
O=NC(C(OCC1CCCCC1)=N2)=CN=C2NC3=CC(OC)=CC=C3

> <standard_relation>
=

> <predicted_activity_value>
6.055024091587952

> <actual_activity_value>
6.468521082957745

> <Publication ID>
nan

> <standard_units>
nM

> hash
10296047565698218180

$$$$
25_
XXILIB    08252103453D 0   0.00000     0.00000

 25 27  0     1  0            999 V2000
   -0.5811   -0.5491   -3.3506 O   0  0  0  0  0  2           0  0  0
    1.3872    0.0000   -0.0000 O   0  0  0  0  0  2           0  0  0
   -3.1859    1.1856    7.0726 O   0  0  0  0  0  2           0  0  0
   -0.6678   -0.0000    1.1796 N   0  0  0  0  0  3           0  0  0
   -2.7261    0.0231   -0.0188 N   0  0  0  0  0  3           0  0  0
    0.0245    0.0159   -2.4322 N   0  0  0  0  0  3           0  0  0
   -2.6997    0.0072    2.3643 N   0  0  0  0  0  3           0  0  0
    0.0000    0.0000    0.0000 C   0  0  0  0  0  4           0  0  0
   -2.5259    0.6215    6.0181 C   0  0  0  0  0  4           0  0  0
   -2.0218    0.0097    1.1382 C   0  0  0  0  0  4           0  0  0
   -2.0208    0.0208   -1.1703 C   0  0  0  0  0  4           0  0  0
   -0.6410    0.0012   -1.2281 C   0  0  0  0  0  4           0  0  0
   -2.2157   -0.0040    3.6746 C   0  0  0  0  0  4           0  0  0
   -2.9727    0.6100    4.6903 C   0  0  0  0  0  4           0  0  0
   -1.3083    0.0158    6.3360 C   0  0  0  0  0  4           0  0  0
   -0.9969   -0.6056    4.0211 C   0  0  0  0  0  4           0  0  0
   -0.5472   -0.5950    5.3421 C   0  0  0  0  0  4           0  0  0
    1.9728    0.0000    1.3020 C   0  0  0  0  0  4           0  0  0
   -4.4296    1.8043    6.7525 C   0  0  0  0  0  4           0  0  0
    3.4920    0.0000    1.1550 C   0  0  1  0  0  4           0  0  0
    4.1646   -0.0000    2.5349 C   0  0  0  0  0  4           0  0  0
    3.9737   -1.1943    0.3133 C   0  0  0  0  0  4           0  0  0
    5.6868   -0.0434    2.4237 C   0  0  0  0  0  4           0  0  0
    5.4970   -1.2375    0.2109 C   0  0  0  0  0  4           0  0  0
    6.1562   -1.2283    1.5861 C   0  0  0  0  0  4           0  0  0
  1  6  2  0     0  0
  2  8  1  0     0  0
  2 18  1  0     0  0
  3  9  1  0     0  0
  3 19  1  0     0  0
  4  8  2  0     0  0
  4 10  1  0     0  0
  5 10  2  0     0  0
  5 11  1  0     0  0
  6 12  1  0     0  0
  7 10  1  0     0  0
  7 13  1  0     0  0
  8 12  1  0     0  0
  9 14  1  0     0  0
  9 15  2  0     0  0
 11 12  2  0     0  0
 13 14  2  0     0  0
 13 16  1  0     0  0
 15 17  1  0     0  0
 16 17  2  0     0  0
 18 20  1  0     0  0
 20 21  1  0     0  0
 20 22  1  0     0  0
 21 23  1  0     0  0
 22 24  1  0     0  0
 23 25  1  0     0  0
 24 25  1  0     0  0
M  END
> <Compound >
25

> <standard_type>
pIC50

> <# Confs.>
25

> <canonical_smiles>
O=NC(C(OCC1CCCCC1)=N2)=CN=C2NC3=CC(OC)=CC=C3

> <standard_relation>
=

> <predicted_activity_value>
6.055024091587952

> <actual_activity_value>
6.468521082957745

> <Publication ID>
nan

> <standard_units>
nM

> hash
10296047565698218180

$$$$
25_
XXILIB    08252103453D 0   0.00000     0.00000

 25 27  0     1  0            999 V2000
   -0.5811   -0.5491   -3.3506 O   0  0  0  0  0  2           0  0  0
    1.3872    0.0000   -0.0000 O   0  0  0  0  0  2           0  0  0
   -6.4265   -1.1871    5.2760 O   0  0  0  0  0  2           0  0  0
   -0.6678   -0.0000    1.1796 N   0  0  0  0  0  3           0  0  0
   -2.7261    0.0231   -0.0188 N   0  0  0  0  0  3           0  0  0
    0.0245    0.0159   -2.4322 N   0  0  0  0  0  3           0  0  0
   -2.6997    0.0072    2.3643 N   0  0  0  0  0  3           0  0  0
    0.0000    0.0000   -0.0000 C   0  0  0  0  0  4           0  0  0
   -5.8854   -0.6184    4.1581 C   0  0  0  0  0  4           0  0  0
   -2.0218    0.0097    1.1382 C   0  0  0  0  0  4           0  0  0
   -2.0208    0.0208   -1.1703 C   0  0  0  0  0  4           0  0  0
   -0.6410    0.0012   -1.2281 C   0  0  0  0  0  4           0  0  0
   -4.0668    0.0150    2.6512 C   0  0  0  0  0  4           0  0  0
   -4.5233   -0.6035    3.8304 C   0  0  0  0  0  4           0  0  0
   -6.8031   -0.0116    3.2979 C   0  0  0  0  0  4           0  0  0
   -5.0094    0.6176    1.8052 C   0  0  0  0  0  4           0  0  0
   -6.3672    0.6037    2.1267 C   0  0  0  0  0  4           0  0  0
    1.9728    0.0000    1.3020 C   0  0  0  0  0  4           0  0  0
   -5.4929   -1.8069    6.1571 C   0  0  0  0  0  4           0  0  0
    3.4920    0.0000    1.1550 C   0  0  1  0  0  4           0  0  0
    3.9568    1.2456    0.3875 C   0  0  0  0  0  4           0  0  0
    4.1876   -0.0882    2.5243 C   0  0  0  0  0  4           0  0  0
    5.4774    1.2984    0.2600 C   0  0  0  0  0  4           0  0  0
    5.7081   -0.0278    2.3922 C   0  0  0  0  0  4           0  0  0
    6.1596    1.2080    1.6210 C   0  0  0  0  0  4           0  0  0
  1  6  2  0     0  0
  2  8  1  0     0  0
  2 18  1  0     0  0
  3  9  1  0     0  0
  3 19  1  0     0  0
  4  8  2  0     0  0
  4 10  1  0     0  0
  5 10  2  0     0  0
  5 11  1  0     0  0
  6 12  1  0     0  0
  7 10  1  0     0  0
  7 13  1  0     0  0
  8 12  1  0     0  0
  9 14  1  0     0  0
  9 15  2  0     0  0
 11 12  2  0     0  0
 13 14  2  0     0  0
 13 16  1  0     0  0
 15 17  1  0     0  0
 16 17  2  0     0  0
 18 20  1  0     0  0
 20 21  1  0     0  0
 20 22  1  0     0  0
 21 23  1  0     0  0
 22 24  1  0     0  0
 23 25  1  0     0  0
 24 25  1  0     0  0
M  END
> <Compound >
25

> <standard_type>
pIC50

> <# Confs.>
25

> <canonical_smiles>
O=NC(C(OCC1CCCCC1)=N2)=CN=C2NC3=CC(OC)=CC=C3

> <standard_relation>
=

> <predicted_activity_value>
6.055024091587952

> <actual_activity_value>
6.468521082957745

> <Publication ID>
nan

> <standard_units>
nM

> hash
10296047565698218180

$$$$
25_
XXILIB    08252103453D 0   0.00000     0.00000

 25 27  0     1  0            999 V2000
   -0.5811   -0.5491   -3.3506 O   0  0  0  0  0  2           0  0  0
    1.3872    0.0000   -0.0000 O   0  0  0  0  0  2           0  0  0
   -6.4106    1.2268    5.2857 O   0  0  0  0  0  2           0  0  0
   -0.6678   -0.0000    1.1796 N   0  0  0  0  0  3           0  0  0
   -2.7261    0.0231   -0.0188 N   0  0  0  0  0  3           0  0  0
    0.0245    0.0159   -2.4322 N   0  0  0  0  0  3           0  0  0
   -2.6997    0.0072    2.3643 N   0  0  0  0  0  3           0  0  0
    0.0000    0.0000   -0.0000 C   0  0  0  0  0  4           0  0  0
   -5.8768    0.6578    4.1646 C   0  0  0  0  0  4           0  0  0
   -2.0218    0.0097    1.1382 C   0  0  0  0  0  4           0  0  0
   -2.0208    0.0208   -1.1703 C   0  0  0  0  0  4           0  0  0
   -0.6410    0.0012   -1.2281 C   0  0  0  0  0  4           0  0  0
   -4.0668    0.0150    2.6512 C   0  0  0  0  0  4           0  0  0
   -4.5147    0.6259    3.8377 C   0  0  0  0  0  4           0  0  0
   -6.8024    0.0710    3.2991 C   0  0  0  0  0  4           0  0  0
   -5.0174   -0.5663    1.7993 C   0  0  0  0  0  4           0  0  0
   -6.3748   -0.5383    2.1217 C   0  0  0  0  0  4           0  0  0
    1.9728    0.0000    1.3020 C   0  0  0  0  0  4           0  0  0
   -5.4690    1.8277    6.1715 C   0  0  0  0  0  4           0  0  0
    3.4920    0.0000    1.1550 C   0  0  1  0  0  4           0  0  0
    3.9568    1.2456    0.3875 C   0  0  0  0  0  4           0  0  0
    4.1876   -0.0882    2.5243 C   0  0  0  0  0  4           0  0  0
    5.4774    1.2984    0.2600 C   0  0  0  0  0  4           0  0  0
    5.7081   -0.0278    2.3922 C   0  0  0  0  0  4           0  0  0
    6.1596    1.2080    1.6210 C   0  0  0  0  0  4           0  0  0
  1  6  2  0     0  0
  2  8  1  0     0  0
  2 18  1  0     0  0
  3  9  1  0     0  0
  3 19  1  0     0  0
  4  8  2  0     0  0
  4 10  1  0     0  0
  5 10  2  0     0  0
  5 11  1  0     0  0
  6 12  1  0     0  0
  7 10  1  0     0  0
  7 13  1  0     0  0
  8 12  1  0     0  0
  9 14  1  0     0  0
  9 15  2  0     0  0
 11 12  2  0     0  0
 13 14  2  0     0  0
 13 16  1  0     0  0
 15 17  1  0     0  0
 16 17  2  0     0  0
 18 20  1  0     0  0
 20 21  1  0     0  0
 20 22  1  0     0  0
 21 23  1  0     0  0
 22 24  1  0     0  0
 23 25  1  0     0  0
 24 25  1  0     0  0
M  END
> <Compound >
25

> <standard_type>
pIC50

> <# Confs.>
25

> <canonical_smiles>
O=NC(C(OCC1CCCCC1)=N2)=CN=C2NC3=CC(OC)=CC=C3

> <standard_relation>
=

> <predicted_activity_value>
6.055024091587952

> <actual_activity_value>
6.468521082957745

> <Publication ID>
nan

> <standard_units>
nM

> hash
10296047565698218180

$$$$
25_
XXILIB    08252103453D 0   0.00000     0.00000

 25 27  0     1  0            999 V2000
   -0.5811   -0.5491   -3.3506 O   0  0  0  0  0  2           0  0  0
    1.3872    0.0000   -0.0000 O   0  0  0  0  0  2           0  0  0
   -3.1984   -1.2282    7.0567 O   0  0  0  0  0  2           0  0  0
   -0.6678   -0.0000    1.1796 N   0  0  0  0  0  3           0  0  0
   -2.7261    0.0231   -0.0188 N   0  0  0  0  0  3           0  0  0
    0.0245    0.0159   -2.4322 N   0  0  0  0  0  3           0  0  0
   -2.6997    0.0072    2.3643 N   0  0  0  0  0  3           0  0  0
    0.0000    0.0000    0.0000 C   0  0  0  0  0  4           0  0  0
   -2.5337   -0.6548    6.0102 C   0  0  0  0  0  4           0  0  0
   -2.0218    0.0097    1.1382 C   0  0  0  0  0  4           0  0  0
   -2.0208    0.0208   -1.1703 C   0  0  0  0  0  4           0  0  0
   -0.6410    0.0012   -1.2281 C   0  0  0  0  0  4           0  0  0
   -2.2157   -0.0040    3.6746 C   0  0  0  0  0  4           0  0  0
   -2.9812   -0.6194    4.6830 C   0  0  0  0  0  4           0  0  0
   -1.3096   -0.0668    6.3358 C   0  0  0  0  0  4           0  0  0
   -0.9897    0.5783    4.0285 C   0  0  0  0  0  4           0  0  0
   -0.5409    0.5470    5.3495 C   0  0  0  0  0  4           0  0  0
    1.9728    0.0000    1.3020 C   0  0  0  0  0  4           0  0  0
   -4.4481   -1.8303    6.7284 C   0  0  0  0  0  4           0  0  0
    3.4920    0.0000    1.1550 C   0  0  1  0  0  4           0  0  0
    4.1646   -0.0000    2.5349 C   0  0  0  0  0  4           0  0  0
    3.9737   -1.1943    0.3133 C   0  0  0  0  0  4           0  0  0
    5.6868   -0.0434    2.4237 C   0  0  0  0  0  4           0  0  0
    5.4970   -1.2375    0.2109 C   0  0  0  0  0  4           0  0  0
    6.1562   -1.2283    1.5861 C   0  0  0  0  0  4           0  0  0
  1  6  2  0     0  0
  2  8  1  0     0  0
  2 18  1  0     0  0
  3  9  1  0     0  0
  3 19  1  0     0  0
  4  8  2  0     0  0
  4 10  1  0     0  0
  5 10  2  0     0  0
  5 11  1  0     0  0
  6 12  1  0     0  0
  7 10  1  0     0  0
  7 13  1  0     0  0
  8 12  1  0     0  0
  9 14  1  0     0  0
  9 15  2  0     0  0
 11 12  2  0     0  0
 13 14  2  0     0  0
 13 16  1  0     0  0
 15 17  1  0     0  0
 16 17  2  0     0  0
 18 20  1  0     0  0
 20 21  1  0     0  0
 20 22  1  0     0  0
 21 23  1  0     0  0
 22 24  1  0     0  0
 23 25  1  0     0  0
 24 25  1  0     0  0
M  END
> <Compound >
25

> <standard_type>
pIC50

> <# Confs.>
25

> <canonical_smiles>
O=NC(C(OCC1CCCCC1)=N2)=CN=C2NC3=CC(OC)=CC=C3

> <standard_relation>
=

> <predicted_activity_value>
6.055024091587952

> <actual_activity_value>
6.468521082957745

> <Publication ID>
nan

> <standard_units>
nM

> hash
10296047565698218180

$$$$
25_
XXILIB    08252103453D 0   0.00000     0.00000

 25 27  0     1  0            999 V2000
   -0.5811   -0.5491   -3.3506 O   0  0  0  0  0  2           0  0  0
    1.3872    0.0000   -0.0000 O   0  0  0  0  0  2           0  0  0
   -3.1859    1.1856    7.0726 O   0  0  0  0  0  2           0  0  0
   -0.6678   -0.0000    1.1796 N   0  0  0  0  0  3           0  0  0
   -2.7261    0.0231   -0.0188 N   0  0  0  0  0  3           0  0  0
    0.0245    0.0159   -2.4322 N   0  0  0  0  0  3           0  0  0
   -2.6997    0.0072    2.3643 N   0  0  0  0  0  3           0  0  0
    0.0000    0.0000    0.0000 C   0  0  0  0  0  4           0  0  0
   -2.5259    0.6215    6.0181 C   0  0  0  0  0  4           0  0  0
   -2.0218    0.0097    1.1382 C   0  0  0  0  0  4           0  0  0
   -2.0208    0.0208   -1.1703 C   0  0  0  0  0  4           0  0  0
   -0.6410    0.0012   -1.2281 C   0  0  0  0  0  4           0  0  0
   -2.2157   -0.0040    3.6746 C   0  0  0  0  0  4           0  0  0
   -2.9727    0.6100    4.6903 C   0  0  0  0  0  4           0  0  0
   -1.3083    0.0158    6.3360 C   0  0  0  0  0  4           0  0  0
   -0.9969   -0.6056    4.0211 C   0  0  0  0  0  4           0  0  0
   -0.5472   -0.5950    5.3421 C   0  0  0  0  0  4           0  0  0
    1.9728    0.0000    1.3020 C   0  0  0  0  0  4           0  0  0
   -4.4296    1.8043    6.7525 C   0  0  0  0  0  4           0  0  0
    3.4920    0.0000    1.1550 C   0  0  1  0  0  4           0  0  0
    3.9568    1.2456    0.3875 C   0  0  0  0  0  4           0  0  0
    4.1876   -0.0882    2.5243 C   0  0  0  0  0  4           0  0  0
    5.4774    1.2984    0.2600 C   0  0  0  0  0  4           0  0  0
    5.7081   -0.0278    2.3922 C   0  0  0  0  0  4           0  0  0
    6.1596    1.2080    1.6210 C   0  0  0  0  0  4           0  0  0
  1  6  2  0     0  0
  2  8  1  0     0  0
  2 18  1  0     0  0
  3  9  1  0     0  0
  3 19  1  0     0  0
  4  8  2  0     0  0
  4 10  1  0     0  0
  5 10  2  0     0  0
  5 11  1  0     0  0
  6 12  1  0     0  0
  7 10  1  0     0  0
  7 13  1  0     0  0
  8 12  1  0     0  0
  9 14  1  0     0  0
  9 15  2  0     0  0
 11 12  2  0     0  0
 13 14  2  0     0  0
 13 16  1  0     0  0
 15 17  1  0     0  0
 16 17  2  0     0  0
 18 20  1  0     0  0
 20 21  1  0     0  0
 20 22  1  0     0  0
 21 23  1  0     0  0
 22 24  1  0     0  0
 23 25  1  0     0  0
 24 25  1  0     0  0
M  END
> <Compound >
25

> <standard_type>
pIC50

> <# Confs.>
25

> <canonical_smiles>
O=NC(C(OCC1CCCCC1)=N2)=CN=C2NC3=CC(OC)=CC=C3

> <standard_relation>
=

> <predicted_activity_value>
6.055024091587952

> <actual_activity_value>
6.468521082957745

> <Publication ID>
nan

> <standard_units>
nM

> hash
10296047565698218180

$$$$
25_
XXILIB    08252103453D 0   0.00000     0.00000

 25 27  0     1  0            999 V2000
   -0.5811   -0.5491   -3.3506 O   0  0  0  0  0  2           0  0  0
    1.3872    0.0000   -0.0000 O   0  0  0  0  0  2           0  0  0
   -3.1984   -1.2282    7.0567 O   0  0  0  0  0  2           0  0  0
   -0.6678   -0.0000    1.1796 N   0  0  0  0  0  3           0  0  0
   -2.7261    0.0231   -0.0188 N   0  0  0  0  0  3           0  0  0
    0.0245    0.0159   -2.4322 N   0  0  0  0  0  3           0  0  0
   -2.6997    0.0072    2.3643 N   0  0  0  0  0  3           0  0  0
    0.0000    0.0000    0.0000 C   0  0  0  0  0  4           0  0  0
   -2.5337   -0.6548    6.0102 C   0  0  0  0  0  4           0  0  0
   -2.0218    0.0097    1.1382 C   0  0  0  0  0  4           0  0  0
   -2.0208    0.0208   -1.1703 C   0  0  0  0  0  4           0  0  0
   -0.6410    0.0012   -1.2281 C   0  0  0  0  0  4           0  0  0
   -2.2157   -0.0040    3.6746 C   0  0  0  0  0  4           0  0  0
   -2.9812   -0.6194    4.6830 C   0  0  0  0  0  4           0  0  0
   -1.3096   -0.0668    6.3358 C   0  0  0  0  0  4           0  0  0
   -0.9897    0.5783    4.0285 C   0  0  0  0  0  4           0  0  0
   -0.5409    0.5470    5.3495 C   0  0  0  0  0  4           0  0  0
    1.9728    0.0000    1.3020 C   0  0  0  0  0  4           0  0  0
   -4.4481   -1.8303    6.7284 C   0  0  0  0  0  4           0  0  0
    3.4920    0.0000    1.1550 C   0  0  1  0  0  4           0  0  0
    3.9568    1.2456    0.3875 C   0  0  0  0  0  4           0  0  0
    4.1876   -0.0882    2.5243 C   0  0  0  0  0  4           0  0  0
    5.4774    1.2984    0.2600 C   0  0  0  0  0  4           0  0  0
    5.7081   -0.0278    2.3922 C   0  0  0  0  0  4           0  0  0
    6.1596    1.2080    1.6210 C   0  0  0  0  0  4           0  0  0
  1  6  2  0     0  0
  2  8  1  0     0  0
  2 18  1  0     0  0
  3  9  1  0     0  0
  3 19  1  0     0  0
  4  8  2  0     0  0
  4 10  1  0     0  0
  5 10  2  0     0  0
  5 11  1  0     0  0
  6 12  1  0     0  0
  7 10  1  0     0  0
  7 13  1  0     0  0
  8 12  1  0     0  0
  9 14  1  0     0  0
  9 15  2  0     0  0
 11 12  2  0     0  0
 13 14  2  0     0  0
 13 16  1  0     0  0
 15 17  1  0     0  0
 16 17  2  0     0  0
 18 20  1  0     0  0
 20 21  1  0     0  0
 20 22  1  0     0  0
 21 23  1  0     0  0
 22 24  1  0     0  0
 23 25  1  0     0  0
 24 25  1  0     0  0
M  END
> <Compound >
25

> <standard_type>
pIC50

> <# Confs.>
25

> <canonical_smiles>
O=NC(C(OCC1CCCCC1)=N2)=CN=C2NC3=CC(OC)=CC=C3

> <standard_relation>
=

> <predicted_activity_value>
6.055024091587952

> <actual_activity_value>
6.468521082957745

> <Publication ID>
nan

> <standard_units>
nM

> hash
10296047565698218180

$$$$
25_
XXILIB    08252103453D 0   0.00000     0.00000

 25 27  0     1  0            999 V2000
   -0.5811   -0.5491   -3.3506 O   0  0  0  0  0  2           0  0  0
    1.3872    0.0000   -0.0000 O   0  0  0  0  0  2           0  0  0
   -6.4265   -1.1871    5.2760 O   0  0  0  0  0  2           0  0  0
   -0.6678   -0.0000    1.1796 N   0  0  0  0  0  3           0  0  0
   -2.7261    0.0231   -0.0188 N   0  0  0  0  0  3           0  0  0
    0.0245    0.0159   -2.4322 N   0  0  0  0  0  3           0  0  0
   -2.6997    0.0072    2.3643 N   0  0  0  0  0  3           0  0  0
    0.0000    0.0000   -0.0000 C   0  0  0  0  0  4           0  0  0
   -5.8854   -0.6184    4.1581 C   0  0  0  0  0  4           0  0  0
   -2.0218    0.0097    1.1382 C   0  0  0  0  0  4           0  0  0
   -2.0208    0.0208   -1.1703 C   0  0  0  0  0  4           0  0  0
   -0.6410    0.0012   -1.2281 C   0  0  0  0  0  4           0  0  0
   -4.0668    0.0150    2.6512 C   0  0  0  0  0  4           0  0  0
   -4.5233   -0.6035    3.8304 C   0  0  0  0  0  4           0  0  0
   -6.8031   -0.0116    3.2979 C   0  0  0  0  0  4           0  0  0
   -5.0094    0.6176    1.8052 C   0  0  0  0  0  4           0  0  0
   -6.3672    0.6037    2.1267 C   0  0  0  0  0  4           0  0  0
    1.9728    0.0000    1.3020 C   0  0  0  0  0  4           0  0  0
   -5.4929   -1.8069    6.1571 C   0  0  0  0  0  4           0  0  0
    3.4920    0.0000    1.1550 C   0  0  1  0  0  4           0  0  0
    3.9568   -1.2456    0.3875 C   0  0  0  0  0  4           0  0  0
    3.9884    1.2825    0.4654 C   0  0  0  0  0  4           0  0  0
    5.4701   -1.2551    0.1852 C   0  0  0  0  0  4           0  0  0
    5.5016    1.2653    0.2588 C   0  0  0  0  0  4           0  0  0
    5.9547    0.0203   -0.4965 C   0  0  0  0  0  4           0  0  0
  1  6  2  0     0  0
  2  8  1  0     0  0
  2 18  1  0     0  0
  3  9  1  0     0  0
  3 19  1  0     0  0
  4  8  2  0     0  0
  4 10  1  0     0  0
  5 10  2  0     0  0
  5 11  1  0     0  0
  6 12  1  0     0  0
  7 10  1  0     0  0
  7 13  1  0     0  0
  8 12  1  0     0  0
  9 14  1  0     0  0
  9 15  2  0     0  0
 11 12  2  0     0  0
 13 14  2  0     0  0
 13 16  1  0     0  0
 15 17  1  0     0  0
 16 17  2  0     0  0
 18 20  1  0     0  0
 20 21  1  0     0  0
 20 22  1  0     0  0
 21 23  1  0     0  0
 22 24  1  0     0  0
 23 25  1  0     0  0
 24 25  1  0     0  0
M  END
> <Compound >
25

> <standard_type>
pIC50

> <# Confs.>
25

> <canonical_smiles>
O=NC(C(OCC1CCCCC1)=N2)=CN=C2NC3=CC(OC)=CC=C3

> <standard_relation>
=

> <predicted_activity_value>
6.055024091587952

> <actual_activity_value>
6.468521082957745

> <Publication ID>
nan

> <standard_units>
nM

> hash
10296047565698218180

$$$$
25_
XXILIB    08252103453D 0   0.00000     0.00000

 25 27  0     1  0            999 V2000
   -0.5811   -0.5491   -3.3506 O   0  0  0  0  0  2           0  0  0
    1.3872    0.0000   -0.0000 O   0  0  0  0  0  2           0  0  0
   -6.4106    1.2268    5.2857 O   0  0  0  0  0  2           0  0  0
   -0.6678   -0.0000    1.1796 N   0  0  0  0  0  3           0  0  0
   -2.7261    0.0231   -0.0188 N   0  0  0  0  0  3           0  0  0
    0.0245    0.0159   -2.4322 N   0  0  0  0  0  3           0  0  0
   -2.6997    0.0072    2.3643 N   0  0  0  0  0  3           0  0  0
    0.0000    0.0000   -0.0000 C   0  0  0  0  0  4           0  0  0
   -5.8768    0.6578    4.1646 C   0  0  0  0  0  4           0  0  0
   -2.0218    0.0097    1.1382 C   0  0  0  0  0  4           0  0  0
   -2.0208    0.0208   -1.1703 C   0  0  0  0  0  4           0  0  0
   -0.6410    0.0012   -1.2281 C   0  0  0  0  0  4           0  0  0
   -4.0668    0.0150    2.6512 C   0  0  0  0  0  4           0  0  0
   -4.5147    0.6259    3.8377 C   0  0  0  0  0  4           0  0  0
   -6.8024    0.0710    3.2991 C   0  0  0  0  0  4           0  0  0
   -5.0174   -0.5663    1.7993 C   0  0  0  0  0  4           0  0  0
   -6.3748   -0.5383    2.1217 C   0  0  0  0  0  4           0  0  0
    1.9728    0.0000    1.3020 C   0  0  0  0  0  4           0  0  0
   -5.4690    1.8277    6.1715 C   0  0  0  0  0  4           0  0  0
    3.4920    0.0000    1.1550 C   0  0  1  0  0  4           0  0  0
    3.9568   -1.2456    0.3875 C   0  0  0  0  0  4           0  0  0
    3.9884    1.2825    0.4654 C   0  0  0  0  0  4           0  0  0
    5.4701   -1.2551    0.1852 C   0  0  0  0  0  4           0  0  0
    5.5016    1.2653    0.2588 C   0  0  0  0  0  4           0  0  0
    5.9547    0.0203   -0.4965 C   0  0  0  0  0  4           0  0  0
  1  6  2  0     0  0
  2  8  1  0     0  0
  2 18  1  0     0  0
  3  9  1  0     0  0
  3 19  1  0     0  0
  4  8  2  0     0  0
  4 10  1  0     0  0
  5 10  2  0     0  0
  5 11  1  0     0  0
  6 12  1  0     0  0
  7 10  1  0     0  0
  7 13  1  0     0  0
  8 12  1  0     0  0
  9 14  1  0     0  0
  9 15  2  0     0  0
 11 12  2  0     0  0
 13 14  2  0     0  0
 13 16  1  0     0  0
 15 17  1  0     0  0
 16 17  2  0     0  0
 18 20  1  0     0  0
 20 21  1  0     0  0
 20 22  1  0     0  0
 21 23  1  0     0  0
 22 24  1  0     0  0
 23 25  1  0     0  0
 24 25  1  0     0  0
M  END
> <Compound >
25

> <standard_type>
pIC50

> <# Confs.>
25

> <canonical_smiles>
O=NC(C(OCC1CCCCC1)=N2)=CN=C2NC3=CC(OC)=CC=C3

> <standard_relation>
=

> <predicted_activity_value>
6.055024091587952

> <actual_activity_value>
6.468521082957745

> <Publication ID>
nan

> <standard_units>
nM

> hash
10296047565698218180

$$$$
25_
XXILIB    08252103453D 0   0.00000     0.00000

 25 27  0     1  0            999 V2000
   -0.5811   -0.5491   -3.3506 O   0  0  0  0  0  2           0  0  0
    1.3872    0.0000   -0.0000 O   0  0  0  0  0  2           0  0  0
   -3.1859    1.1856    7.0726 O   0  0  0  0  0  2           0  0  0
   -0.6678   -0.0000    1.1796 N   0  0  0  0  0  3           0  0  0
   -2.7261    0.0231   -0.0188 N   0  0  0  0  0  3           0  0  0
    0.0245    0.0159   -2.4322 N   0  0  0  0  0  3           0  0  0
   -2.6997    0.0072    2.3643 N   0  0  0  0  0  3           0  0  0
    0.0000    0.0000    0.0000 C   0  0  0  0  0  4           0  0  0
   -2.5259    0.6215    6.0181 C   0  0  0  0  0  4           0  0  0
   -2.0218    0.0097    1.1382 C   0  0  0  0  0  4           0  0  0
   -2.0208    0.0208   -1.1703 C   0  0  0  0  0  4           0  0  0
   -0.6410    0.0012   -1.2281 C   0  0  0  0  0  4           0  0  0
   -2.2157   -0.0040    3.6746 C   0  0  0  0  0  4           0  0  0
   -2.9727    0.6100    4.6903 C   0  0  0  0  0  4           0  0  0
   -1.3083    0.0158    6.3360 C   0  0  0  0  0  4           0  0  0
   -0.9969   -0.6056    4.0211 C   0  0  0  0  0  4           0  0  0
   -0.5472   -0.5950    5.3421 C   0  0  0  0  0  4           0  0  0
    1.9728    0.0000    1.3020 C   0  0  0  0  0  4           0  0  0
   -4.4296    1.8043    6.7525 C   0  0  0  0  0  4           0  0  0
    3.4920    0.0000    1.1550 C   0  0  1  0  0  4           0  0  0
    3.9568   -1.2456    0.3875 C   0  0  0  0  0  4           0  0  0
    3.9884    1.2825    0.4654 C   0  0  0  0  0  4           0  0  0
    5.4701   -1.2551    0.1852 C   0  0  0  0  0  4           0  0  0
    5.5016    1.2653    0.2588 C   0  0  0  0  0  4           0  0  0
    5.9547    0.0203   -0.4965 C   0  0  0  0  0  4           0  0  0
  1  6  2  0     0  0
  2  8  1  0     0  0
  2 18  1  0     0  0
  3  9  1  0     0  0
  3 19  1  0     0  0
  4  8  2  0     0  0
  4 10  1  0     0  0
  5 10  2  0     0  0
  5 11  1  0     0  0
  6 12  1  0     0  0
  7 10  1  0     0  0
  7 13  1  0     0  0
  8 12  1  0     0  0
  9 14  1  0     0  0
  9 15  2  0     0  0
 11 12  2  0     0  0
 13 14  2  0     0  0
 13 16  1  0     0  0
 15 17  1  0     0  0
 16 17  2  0     0  0
 18 20  1  0     0  0
 20 21  1  0     0  0
 20 22  1  0     0  0
 21 23  1  0     0  0
 22 24  1  0     0  0
 23 25  1  0     0  0
 24 25  1  0     0  0
M  END
> <Compound >
25

> <standard_type>
pIC50

> <# Confs.>
25

> <canonical_smiles>
O=NC(C(OCC1CCCCC1)=N2)=CN=C2NC3=CC(OC)=CC=C3

> <standard_relation>
=

> <predicted_activity_value>
6.055024091587952

> <actual_activity_value>
6.468521082957745

> <Publication ID>
nan

> <standard_units>
nM

> hash
10296047565698218180

$$$$
25_
XXILIB    08252103453D 0   0.00000     0.00000

 25 27  0     1  0            999 V2000
   -0.5811   -0.5491   -3.3506 O   0  0  0  0  0  2           0  0  0
    1.3872    0.0000   -0.0000 O   0  0  0  0  0  2           0  0  0
   -3.1984   -1.2282    7.0567 O   0  0  0  0  0  2           0  0  0
   -0.6678   -0.0000    1.1796 N   0  0  0  0  0  3           0  0  0
   -2.7261    0.0231   -0.0188 N   0  0  0  0  0  3           0  0  0
    0.0245    0.0159   -2.4322 N   0  0  0  0  0  3           0  0  0
   -2.6997    0.0072    2.3643 N   0  0  0  0  0  3           0  0  0
    0.0000    0.0000    0.0000 C   0  0  0  0  0  4           0  0  0
   -2.5337   -0.6548    6.0102 C   0  0  0  0  0  4           0  0  0
   -2.0218    0.0097    1.1382 C   0  0  0  0  0  4           0  0  0
   -2.0208    0.0208   -1.1703 C   0  0  0  0  0  4           0  0  0
   -0.6410    0.0012   -1.2281 C   0  0  0  0  0  4           0  0  0
   -2.2157   -0.0040    3.6746 C   0  0  0  0  0  4           0  0  0
   -2.9812   -0.6194    4.6830 C   0  0  0  0  0  4           0  0  0
   -1.3096   -0.0668    6.3358 C   0  0  0  0  0  4           0  0  0
   -0.9897    0.5783    4.0285 C   0  0  0  0  0  4           0  0  0
   -0.5409    0.5470    5.3495 C   0  0  0  0  0  4           0  0  0
    1.9728    0.0000    1.3020 C   0  0  0  0  0  4           0  0  0
   -4.4481   -1.8303    6.7284 C   0  0  0  0  0  4           0  0  0
    3.4920    0.0000    1.1550 C   0  0  1  0  0  4           0  0  0
    3.9568   -1.2456    0.3875 C   0  0  0  0  0  4           0  0  0
    3.9884    1.2825    0.4654 C   0  0  0  0  0  4           0  0  0
    5.4701   -1.2551    0.1852 C   0  0  0  0  0  4           0  0  0
    5.5016    1.2653    0.2588 C   0  0  0  0  0  4           0  0  0
    5.9547    0.0203   -0.4965 C   0  0  0  0  0  4           0  0  0
  1  6  2  0     0  0
  2  8  1  0     0  0
  2 18  1  0     0  0
  3  9  1  0     0  0
  3 19  1  0     0  0
  4  8  2  0     0  0
  4 10  1  0     0  0
  5 10  2  0     0  0
  5 11  1  0     0  0
  6 12  1  0     0  0
  7 10  1  0     0  0
  7 13  1  0     0  0
  8 12  1  0     0  0
  9 14  1  0     0  0
  9 15  2  0     0  0
 11 12  2  0     0  0
 13 14  2  0     0  0
 13 16  1  0     0  0
 15 17  1  0     0  0
 16 17  2  0     0  0
 18 20  1  0     0  0
 20 21  1  0     0  0
 20 22  1  0     0  0
 21 23  1  0     0  0
 22 24  1  0     0  0
 23 25  1  0     0  0
 24 25  1  0     0  0
M  END
> <Compound >
25

> <standard_type>
pIC50

> <# Confs.>
25

> <canonical_smiles>
O=NC(C(OCC1CCCCC1)=N2)=CN=C2NC3=CC(OC)=CC=C3

> <standard_relation>
=

> <predicted_activity_value>
6.055024091587952

> <actual_activity_value>
6.468521082957745

> <Publication ID>
nan

> <standard_units>
nM

> hash
10296047565698218180

$$$$
25_
XXILIB    08252103453D 0   0.00000     0.00000

 25 27  0     1  0            999 V2000
   -0.5811   -0.5491   -3.3506 O   0  0  0  0  0  2           0  0  0
    1.3872    0.0000   -0.0000 O   0  0  0  0  0  2           0  0  0
   -7.2851   -1.1648    1.1840 O   0  0  0  0  0  2           0  0  0
   -0.6678   -0.0000    1.1796 N   0  0  0  0  0  3           0  0  0
   -2.7261    0.0231   -0.0188 N   0  0  0  0  0  3           0  0  0
    0.0245    0.0159   -2.4322 N   0  0  0  0  0  3           0  0  0
   -2.6997    0.0072    2.3643 N   0  0  0  0  0  3           0  0  0
    0.0000    0.0000   -0.0000 C   0  0  0  0  0  4           0  0  0
   -6.3394   -0.6043    1.9947 C   0  0  0  0  0  4           0  0  0
   -2.0218    0.0097    1.1382 C   0  0  0  0  0  4           0  0  0
   -2.0208    0.0208   -1.1703 C   0  0  0  0  0  4           0  0  0
   -0.6410    0.0012   -1.2281 C   0  0  0  0  0  4           0  0  0
   -4.0668    0.0150    2.6512 C   0  0  0  0  0  4           0  0  0
   -4.9606   -0.5881    1.7463 C   0  0  0  0  0  4           0  0  0
   -6.8325   -0.0093    3.1579 C   0  0  0  0  0  4           0  0  0
   -4.5883    0.6048    3.8121 C   0  0  0  0  0  4           0  0  0
   -5.9610    0.5925    4.0626 C   0  0  0  0  0  4           0  0  0
    1.9728    0.0000    1.3020 C   0  0  0  0  0  4           0  0  0
   -6.7857   -1.7740   -0.0041 C   0  0  0  0  0  4           0  0  0
    3.4920    0.0000    1.1550 C   0  0  1  0  0  4           0  0  0
    4.1646   -0.0000    2.5349 C   0  0  0  0  0  4           0  0  0
    3.9737   -1.1943    0.3133 C   0  0  0  0  0  4           0  0  0
    5.6868   -0.0434    2.4237 C   0  0  0  0  0  4           0  0  0
    5.4970   -1.2375    0.2109 C   0  0  0  0  0  4           0  0  0
    6.1562   -1.2283    1.5861 C   0  0  0  0  0  4           0  0  0
  1  6  2  0     0  0
  2  8  1  0     0  0
  2 18  1  0     0  0
  3  9  1  0     0  0
  3 19  1  0     0  0
  4  8  2  0     0  0
  4 10  1  0     0  0
  5 10  2  0     0  0
  5 11  1  0     0  0
  6 12  1  0     0  0
  7 10  1  0     0  0
  7 13  1  0     0  0
  8 12  1  0     0  0
  9 14  1  0     0  0
  9 15  2  0     0  0
 11 12  2  0     0  0
 13 14  2  0     0  0
 13 16  1  0     0  0
 15 17  1  0     0  0
 16 17  2  0     0  0
 18 20  1  0     0  0
 20 21  1  0     0  0
 20 22  1  0     0  0
 21 23  1  0     0  0
 22 24  1  0     0  0
 23 25  1  0     0  0
 24 25  1  0     0  0
M  END
> <Compound >
25

> <standard_type>
pIC50

> <# Confs.>
25

> <canonical_smiles>
O=NC(C(OCC1CCCCC1)=N2)=CN=C2NC3=CC(OC)=CC=C3

> <standard_relation>
=

> <predicted_activity_value>
6.055024091587952

> <actual_activity_value>
6.468521082957745

> <Publication ID>
nan

> <standard_units>
nM

> hash
10296047565698218180

$$$$
25_
XXILIB    08252103453D 0   0.00000     0.00000

 25 27  0     1  0            999 V2000
   -0.5811   -0.5491   -3.3506 O   0  0  0  0  0  2           0  0  0
    1.3872    0.0000   -0.0000 O   0  0  0  0  0  2           0  0  0
   -7.2692    1.2491    1.1938 O   0  0  0  0  0  2           0  0  0
   -0.6678   -0.0000    1.1796 N   0  0  0  0  0  3           0  0  0
   -2.7261    0.0231   -0.0188 N   0  0  0  0  0  3           0  0  0
    0.0245    0.0159   -2.4322 N   0  0  0  0  0  3           0  0  0
   -2.6997    0.0072    2.3643 N   0  0  0  0  0  3           0  0  0
    0.0000    0.0000   -0.0000 C   0  0  0  0  0  4           0  0  0
   -6.3307    0.6719    2.0012 C   0  0  0  0  0  4           0  0  0
   -2.0218    0.0097    1.1382 C   0  0  0  0  0  4           0  0  0
   -2.0208    0.0208   -1.1703 C   0  0  0  0  0  4           0  0  0
   -0.6410    0.0012   -1.2281 C   0  0  0  0  0  4           0  0  0
   -4.0668    0.0150    2.6512 C   0  0  0  0  0  4           0  0  0
   -4.9520    0.6413    1.7536 C   0  0  0  0  0  4           0  0  0
   -6.8318    0.0733    3.1591 C   0  0  0  0  0  4           0  0  0
   -4.5963   -0.5791    3.8062 C   0  0  0  0  0  4           0  0  0
   -5.9686   -0.5495    4.0576 C   0  0  0  0  0  4           0  0  0
    1.9728    0.0000    1.3020 C   0  0  0  0  0  4           0  0  0
   -6.7618    1.8606    0.0103 C   0  0  0  0  0  4           0  0  0
    3.4920    0.0000    1.1550 C   0  0  1  0  0  4           0  0  0
    4.1646   -0.0000    2.5349 C   0  0  0  0  0  4           0  0  0
    3.9737   -1.1943    0.3133 C   0  0  0  0  0  4           0  0  0
    5.6868   -0.0434    2.4237 C   0  0  0  0  0  4           0  0  0
    5.4970   -1.2375    0.2109 C   0  0  0  0  0  4           0  0  0
    6.1562   -1.2283    1.5861 C   0  0  0  0  0  4           0  0  0
  1  6  2  0     0  0
  2  8  1  0     0  0
  2 18  1  0     0  0
  3  9  1  0     0  0
  3 19  1  0     0  0
  4  8  2  0     0  0
  4 10  1  0     0  0
  5 10  2  0     0  0
  5 11  1  0     0  0
  6 12  1  0     0  0
  7 10  1  0     0  0
  7 13  1  0     0  0
  8 12  1  0     0  0
  9 14  1  0     0  0
  9 15  2  0     0  0
 11 12  2  0     0  0
 13 14  2  0     0  0
 13 16  1  0     0  0
 15 17  1  0     0  0
 16 17  2  0     0  0
 18 20  1  0     0  0
 20 21  1  0     0  0
 20 22  1  0     0  0
 21 23  1  0     0  0
 22 24  1  0     0  0
 23 25  1  0     0  0
 24 25  1  0     0  0
M  END
> <Compound >
25

> <standard_type>
pIC50

> <# Confs.>
25

> <canonical_smiles>
O=NC(C(OCC1CCCCC1)=N2)=CN=C2NC3=CC(OC)=CC=C3

> <standard_relation>
=

> <predicted_activity_value>
6.055024091587952

> <actual_activity_value>
6.468521082957745

> <Publication ID>
nan

> <standard_units>
nM

> hash
10296047565698218180

$$$$
25_
XXILIB    08252103453D 0   0.00000     0.00000

 25 27  0     1  0            999 V2000
   -0.5811   -0.5491   -3.3506 O   0  0  0  0  0  2           0  0  0
    1.3872    0.0000   -0.0000 O   0  0  0  0  0  2           0  0  0
   -7.2851   -1.1648    1.1840 O   0  0  0  0  0  2           0  0  0
   -0.6678   -0.0000    1.1796 N   0  0  0  0  0  3           0  0  0
   -2.7261    0.0231   -0.0188 N   0  0  0  0  0  3           0  0  0
    0.0245    0.0159   -2.4322 N   0  0  0  0  0  3           0  0  0
   -2.6997    0.0072    2.3643 N   0  0  0  0  0  3           0  0  0
    0.0000    0.0000   -0.0000 C   0  0  0  0  0  4           0  0  0
   -6.3394   -0.6043    1.9947 C   0  0  0  0  0  4           0  0  0
   -2.0218    0.0097    1.1382 C   0  0  0  0  0  4           0  0  0
   -2.0208    0.0208   -1.1703 C   0  0  0  0  0  4           0  0  0
   -0.6410    0.0012   -1.2281 C   0  0  0  0  0  4           0  0  0
   -4.0668    0.0150    2.6512 C   0  0  0  0  0  4           0  0  0
   -4.9606   -0.5881    1.7463 C   0  0  0  0  0  4           0  0  0
   -6.8325   -0.0093    3.1579 C   0  0  0  0  0  4           0  0  0
   -4.5883    0.6048    3.8121 C   0  0  0  0  0  4           0  0  0
   -5.9610    0.5925    4.0626 C   0  0  0  0  0  4           0  0  0
    1.9728    0.0000    1.3020 C   0  0  0  0  0  4           0  0  0
   -6.7857   -1.7740   -0.0041 C   0  0  0  0  0  4           0  0  0
    3.4920    0.0000    1.1550 C   0  0  1  0  0  4           0  0  0
    3.9568    1.2456    0.3875 C   0  0  0  0  0  4           0  0  0
    4.1876   -0.0882    2.5243 C   0  0  0  0  0  4           0  0  0
    5.4774    1.2984    0.2600 C   0  0  0  0  0  4           0  0  0
    5.7081   -0.0278    2.3922 C   0  0  0  0  0  4           0  0  0
    6.1596    1.2080    1.6210 C   0  0  0  0  0  4           0  0  0
  1  6  2  0     0  0
  2  8  1  0     0  0
  2 18  1  0     0  0
  3  9  1  0     0  0
  3 19  1  0     0  0
  4  8  2  0     0  0
  4 10  1  0     0  0
  5 10  2  0     0  0
  5 11  1  0     0  0
  6 12  1  0     0  0
  7 10  1  0     0  0
  7 13  1  0     0  0
  8 12  1  0     0  0
  9 14  1  0     0  0
  9 15  2  0     0  0
 11 12  2  0     0  0
 13 14  2  0     0  0
 13 16  1  0     0  0
 15 17  1  0     0  0
 16 17  2  0     0  0
 18 20  1  0     0  0
 20 21  1  0     0  0
 20 22  1  0     0  0
 21 23  1  0     0  0
 22 24  1  0     0  0
 23 25  1  0     0  0
 24 25  1  0     0  0
M  END
> <Compound >
25

> <standard_type>
pIC50

> <# Confs.>
25

> <canonical_smiles>
O=NC(C(OCC1CCCCC1)=N2)=CN=C2NC3=CC(OC)=CC=C3

> <standard_relation>
=

> <predicted_activity_value>
6.055024091587952

> <actual_activity_value>
6.468521082957745

> <Publication ID>
nan

> <standard_units>
nM

> hash
10296047565698218180

$$$$
25_
XXILIB    08252103453D 0   0.00000     0.00000

 25 27  0     1  0            999 V2000
   -0.5811   -0.5491   -3.3506 O   0  0  0  0  0  2           0  0  0
    1.3872    0.0000   -0.0000 O   0  0  0  0  0  2           0  0  0
   -7.2692    1.2491    1.1938 O   0  0  0  0  0  2           0  0  0
   -0.6678   -0.0000    1.1796 N   0  0  0  0  0  3           0  0  0
   -2.7261    0.0231   -0.0188 N   0  0  0  0  0  3           0  0  0
    0.0245    0.0159   -2.4322 N   0  0  0  0  0  3           0  0  0
   -2.6997    0.0072    2.3643 N   0  0  0  0  0  3           0  0  0
    0.0000    0.0000   -0.0000 C   0  0  0  0  0  4           0  0  0
   -6.3307    0.6719    2.0012 C   0  0  0  0  0  4           0  0  0
   -2.0218    0.0097    1.1382 C   0  0  0  0  0  4           0  0  0
   -2.0208    0.0208   -1.1703 C   0  0  0  0  0  4           0  0  0
   -0.6410    0.0012   -1.2281 C   0  0  0  0  0  4           0  0  0
   -4.0668    0.0150    2.6512 C   0  0  0  0  0  4           0  0  0
   -4.9520    0.6413    1.7536 C   0  0  0  0  0  4           0  0  0
   -6.8318    0.0733    3.1591 C   0  0  0  0  0  4           0  0  0
   -4.5963   -0.5791    3.8062 C   0  0  0  0  0  4           0  0  0
   -5.9686   -0.5495    4.0576 C   0  0  0  0  0  4           0  0  0
    1.9728    0.0000    1.3020 C   0  0  0  0  0  4           0  0  0
   -6.7618    1.8606    0.0103 C   0  0  0  0  0  4           0  0  0
    3.4920    0.0000    1.1550 C   0  0  1  0  0  4           0  0  0
    3.9568    1.2456    0.3875 C   0  0  0  0  0  4           0  0  0
    4.1876   -0.0882    2.5243 C   0  0  0  0  0  4           0  0  0
    5.4774    1.2984    0.2600 C   0  0  0  0  0  4           0  0  0
    5.7081   -0.0278    2.3922 C   0  0  0  0  0  4           0  0  0
    6.1596    1.2080    1.6210 C   0  0  0  0  0  4           0  0  0
  1  6  2  0     0  0
  2  8  1  0     0  0
  2 18  1  0     0  0
  3  9  1  0     0  0
  3 19  1  0     0  0
  4  8  2  0     0  0
  4 10  1  0     0  0
  5 10  2  0     0  0
  5 11  1  0     0  0
  6 12  1  0     0  0
  7 10  1  0     0  0
  7 13  1  0     0  0
  8 12  1  0     0  0
  9 14  1  0     0  0
  9 15  2  0     0  0
 11 12  2  0     0  0
 13 14  2  0     0  0
 13 16  1  0     0  0
 15 17  1  0     0  0
 16 17  2  0     0  0
 18 20  1  0     0  0
 20 21  1  0     0  0
 20 22  1  0     0  0
 21 23  1  0     0  0
 22 24  1  0     0  0
 23 25  1  0     0  0
 24 25  1  0     0  0
M  END
> <Compound >
25

> <standard_type>
pIC50

> <# Confs.>
25

> <canonical_smiles>
O=NC(C(OCC1CCCCC1)=N2)=CN=C2NC3=CC(OC)=CC=C3

> <standard_relation>
=

> <predicted_activity_value>
6.055024091587952

> <actual_activity_value>
6.468521082957745

> <Publication ID>
nan

> <standard_units>
nM

> hash
10296047565698218180

$$$$
25_
XXILIB    08252103453D 0   0.00000     0.00000

 25 27  0     1  0            999 V2000
   -0.5811   -0.5491   -3.3506 O   0  0  0  0  0  2           0  0  0
    1.3872    0.0000   -0.0000 O   0  0  0  0  0  2           0  0  0
   -7.2851   -1.1648    1.1840 O   0  0  0  0  0  2           0  0  0
   -0.6678   -0.0000    1.1796 N   0  0  0  0  0  3           0  0  0
   -2.7261    0.0231   -0.0188 N   0  0  0  0  0  3           0  0  0
    0.0245    0.0159   -2.4322 N   0  0  0  0  0  3           0  0  0
   -2.6997    0.0072    2.3643 N   0  0  0  0  0  3           0  0  0
    0.0000    0.0000   -0.0000 C   0  0  0  0  0  4           0  0  0
   -6.3394   -0.6043    1.9947 C   0  0  0  0  0  4           0  0  0
   -2.0218    0.0097    1.1382 C   0  0  0  0  0  4           0  0  0
   -2.0208    0.0208   -1.1703 C   0  0  0  0  0  4           0  0  0
   -0.6410    0.0012   -1.2281 C   0  0  0  0  0  4           0  0  0
   -4.0668    0.0150    2.6512 C   0  0  0  0  0  4           0  0  0
   -4.9606   -0.5881    1.7463 C   0  0  0  0  0  4           0  0  0
   -6.8325   -0.0093    3.1579 C   0  0  0  0  0  4           0  0  0
   -4.5883    0.6048    3.8121 C   0  0  0  0  0  4           0  0  0
   -5.9610    0.5925    4.0626 C   0  0  0  0  0  4           0  0  0
    1.9728    0.0000    1.3020 C   0  0  0  0  0  4           0  0  0
   -6.7857   -1.7740   -0.0041 C   0  0  0  0  0  4           0  0  0
    3.4920    0.0000    1.1550 C   0  0  1  0  0  4           0  0  0
    3.9568   -1.2456    0.3875 C   0  0  0  0  0  4           0  0  0
    3.9884    1.2825    0.4654 C   0  0  0  0  0  4           0  0  0
    5.4701   -1.2551    0.1852 C   0  0  0  0  0  4           0  0  0
    5.5016    1.2653    0.2588 C   0  0  0  0  0  4           0  0  0
    5.9547    0.0203   -0.4965 C   0  0  0  0  0  4           0  0  0
  1  6  2  0     0  0
  2  8  1  0     0  0
  2 18  1  0     0  0
  3  9  1  0     0  0
  3 19  1  0     0  0
  4  8  2  0     0  0
  4 10  1  0     0  0
  5 10  2  0     0  0
  5 11  1  0     0  0
  6 12  1  0     0  0
  7 10  1  0     0  0
  7 13  1  0     0  0
  8 12  1  0     0  0
  9 14  1  0     0  0
  9 15  2  0     0  0
 11 12  2  0     0  0
 13 14  2  0     0  0
 13 16  1  0     0  0
 15 17  1  0     0  0
 16 17  2  0     0  0
 18 20  1  0     0  0
 20 21  1  0     0  0
 20 22  1  0     0  0
 21 23  1  0     0  0
 22 24  1  0     0  0
 23 25  1  0     0  0
 24 25  1  0     0  0
M  END
> <Compound >
25

> <standard_type>
pIC50

> <# Confs.>
25

> <canonical_smiles>
O=NC(C(OCC1CCCCC1)=N2)=CN=C2NC3=CC(OC)=CC=C3

> <standard_relation>
=

> <predicted_activity_value>
6.055024091587952

> <actual_activity_value>
6.468521082957745

> <Publication ID>
nan

> <standard_units>
nM

> hash
10296047565698218180

$$$$
25_
XXILIB    08252103453D 0   0.00000     0.00000

 25 27  0     1  0            999 V2000
   -0.5811   -0.5491   -3.3506 O   0  0  0  0  0  2           0  0  0
    1.3872    0.0000   -0.0000 O   0  0  0  0  0  2           0  0  0
   -7.2692    1.2491    1.1938 O   0  0  0  0  0  2           0  0  0
   -0.6678   -0.0000    1.1796 N   0  0  0  0  0  3           0  0  0
   -2.7261    0.0231   -0.0188 N   0  0  0  0  0  3           0  0  0
    0.0245    0.0159   -2.4322 N   0  0  0  0  0  3           0  0  0
   -2.6997    0.0072    2.3643 N   0  0  0  0  0  3           0  0  0
    0.0000    0.0000   -0.0000 C   0  0  0  0  0  4           0  0  0
   -6.3307    0.6719    2.0012 C   0  0  0  0  0  4           0  0  0
   -2.0218    0.0097    1.1382 C   0  0  0  0  0  4           0  0  0
   -2.0208    0.0208   -1.1703 C   0  0  0  0  0  4           0  0  0
   -0.6410    0.0012   -1.2281 C   0  0  0  0  0  4           0  0  0
   -4.0668    0.0150    2.6512 C   0  0  0  0  0  4           0  0  0
   -4.9520    0.6413    1.7536 C   0  0  0  0  0  4           0  0  0
   -6.8318    0.0733    3.1591 C   0  0  0  0  0  4           0  0  0
   -4.5963   -0.5791    3.8062 C   0  0  0  0  0  4           0  0  0
   -5.9686   -0.5495    4.0576 C   0  0  0  0  0  4           0  0  0
    1.9728    0.0000    1.3020 C   0  0  0  0  0  4           0  0  0
   -6.7618    1.8606    0.0103 C   0  0  0  0  0  4           0  0  0
    3.4920    0.0000    1.1550 C   0  0  1  0  0  4           0  0  0
    3.9568   -1.2456    0.3875 C   0  0  0  0  0  4           0  0  0
    3.9884    1.2825    0.4654 C   0  0  0  0  0  4           0  0  0
    5.4701   -1.2551    0.1852 C   0  0  0  0  0  4           0  0  0
    5.5016    1.2653    0.2588 C   0  0  0  0  0  4           0  0  0
    5.9547    0.0203   -0.4965 C   0  0  0  0  0  4           0  0  0
  1  6  2  0     0  0
  2  8  1  0     0  0
  2 18  1  0     0  0
  3  9  1  0     0  0
  3 19  1  0     0  0
  4  8  2  0     0  0
  4 10  1  0     0  0
  5 10  2  0     0  0
  5 11  1  0     0  0
  6 12  1  0     0  0
  7 10  1  0     0  0
  7 13  1  0     0  0
  8 12  1  0     0  0
  9 14  1  0     0  0
  9 15  2  0     0  0
 11 12  2  0     0  0
 13 14  2  0     0  0
 13 16  1  0     0  0
 15 17  1  0     0  0
 16 17  2  0     0  0
 18 20  1  0     0  0
 20 21  1  0     0  0
 20 22  1  0     0  0
 21 23  1  0     0  0
 22 24  1  0     0  0
 23 25  1  0     0  0
 24 25  1  0     0  0
M  END
> <Compound >
25

> <standard_type>
pIC50

> <# Confs.>
25

> <canonical_smiles>
O=NC(C(OCC1CCCCC1)=N2)=CN=C2NC3=CC(OC)=CC=C3

> <standard_relation>
=

> <predicted_activity_value>
6.055024091587952

> <actual_activity_value>
6.468521082957745

> <Publication ID>
nan

> <standard_units>
nM

> hash
10296047565698218180

$$$$
25_
XXILIB    08252103453D 0   0.00000     0.00000

 25 27  0     1  0            999 V2000
   -0.5811   -0.5491   -3.3506 O   0  0  0  0  0  2           0  0  0
    1.3872    0.0000   -0.0000 O   0  0  0  0  0  2           0  0  0
   -3.1859    1.1856    7.0726 O   0  0  0  0  0  2           0  0  0
   -0.6678   -0.0000    1.1796 N   0  0  0  0  0  3           0  0  0
   -2.7261    0.0231   -0.0188 N   0  0  0  0  0  3           0  0  0
    0.0245    0.0159   -2.4322 N   0  0  0  0  0  3           0  0  0
   -2.6997    0.0072    2.3643 N   0  0  0  0  0  3           0  0  0
    0.0000    0.0000    0.0000 C   0  0  0  0  0  4           0  0  0
   -2.5259    0.6215    6.0181 C   0  0  0  0  0  4           0  0  0
   -2.0218    0.0097    1.1382 C   0  0  0  0  0  4           0  0  0
   -2.0208    0.0208   -1.1703 C   0  0  0  0  0  4           0  0  0
   -0.6410    0.0012   -1.2281 C   0  0  0  0  0  4           0  0  0
   -2.2157   -0.0040    3.6746 C   0  0  0  0  0  4           0  0  0
   -2.9727    0.6100    4.6903 C   0  0  0  0  0  4           0  0  0
   -1.3083    0.0158    6.3360 C   0  0  0  0  0  4           0  0  0
   -0.9969   -0.6056    4.0211 C   0  0  0  0  0  4           0  0  0
   -0.5472   -0.5950    5.3421 C   0  0  0  0  0  4           0  0  0
    1.9728    0.0000    1.3020 C   0  0  0  0  0  4           0  0  0
   -4.4296    1.8043    6.7525 C   0  0  0  0  0  4           0  0  0
    3.4920    0.0000    1.1550 C   0  0  1  0  0  4           0  0  0
    4.1868   -0.0000    2.5249 C   0  0  0  0  0  4           0  0  0
    4.0008   -1.1720    0.2963 C   0  0  0  0  0  4           0  0  0
    4.0849   -1.3450    3.2423 C   0  0  0  0  0  4           0  0  0
    3.9034   -2.5197    1.0102 C   0  0  0  0  0  4           0  0  0
    4.5960   -2.4871    2.3694 C   0  0  0  0  0  4           0  0  0
  1  6  2  0     0  0
  2  8  1  0     0  0
  2 18  1  0     0  0
  3  9  1  0     0  0
  3 19  1  0     0  0
  4  8  2  0     0  0
  4 10  1  0     0  0
  5 10  2  0     0  0
  5 11  1  0     0  0
  6 12  1  0     0  0
  7 10  1  0     0  0
  7 13  1  0     0  0
  8 12  1  0     0  0
  9 14  1  0     0  0
  9 15  2  0     0  0
 11 12  2  0     0  0
 13 14  2  0     0  0
 13 16  1  0     0  0
 15 17  1  0     0  0
 16 17  2  0     0  0
 18 20  1  0     0  0
 20 21  1  0     0  0
 20 22  1  0     0  0
 21 23  1  0     0  0
 22 24  1  0     0  0
 23 25  1  0     0  0
 24 25  1  0     0  0
M  END
> <Compound >
25

> <standard_type>
pIC50

> <# Confs.>
25

> <canonical_smiles>
O=NC(C(OCC1CCCCC1)=N2)=CN=C2NC3=CC(OC)=CC=C3

> <standard_relation>
=

> <predicted_activity_value>
6.055024091587952

> <actual_activity_value>
6.468521082957745

> <Publication ID>
nan

> <standard_units>
nM

> hash
10296047565698218180

$$$$
25_
XXILIB    08252103453D 0   0.00000     0.00000

 25 27  0     1  0            999 V2000
   -0.5811   -0.5491   -3.3506 O   0  0  0  0  0  2           0  0  0
    1.3872    0.0000   -0.0000 O   0  0  0  0  0  2           0  0  0
   -3.1984   -1.2282    7.0567 O   0  0  0  0  0  2           0  0  0
   -0.6678   -0.0000    1.1796 N   0  0  0  0  0  3           0  0  0
   -2.7261    0.0231   -0.0188 N   0  0  0  0  0  3           0  0  0
    0.0245    0.0159   -2.4322 N   0  0  0  0  0  3           0  0  0
   -2.6997    0.0072    2.3643 N   0  0  0  0  0  3           0  0  0
    0.0000    0.0000    0.0000 C   0  0  0  0  0  4           0  0  0
   -2.5337   -0.6548    6.0102 C   0  0  0  0  0  4           0  0  0
   -2.0218    0.0097    1.1382 C   0  0  0  0  0  4           0  0  0
   -2.0208    0.0208   -1.1703 C   0  0  0  0  0  4           0  0  0
   -0.6410    0.0012   -1.2281 C   0  0  0  0  0  4           0  0  0
   -2.2157   -0.0040    3.6746 C   0  0  0  0  0  4           0  0  0
   -2.9812   -0.6194    4.6830 C   0  0  0  0  0  4           0  0  0
   -1.3096   -0.0668    6.3358 C   0  0  0  0  0  4           0  0  0
   -0.9897    0.5783    4.0285 C   0  0  0  0  0  4           0  0  0
   -0.5409    0.5470    5.3495 C   0  0  0  0  0  4           0  0  0
    1.9728    0.0000    1.3020 C   0  0  0  0  0  4           0  0  0
   -4.4481   -1.8303    6.7284 C   0  0  0  0  0  4           0  0  0
    3.4920    0.0000    1.1550 C   0  0  1  0  0  4           0  0  0
    4.1868   -0.0000    2.5249 C   0  0  0  0  0  4           0  0  0
    4.0008   -1.1720    0.2963 C   0  0  0  0  0  4           0  0  0
    4.0849   -1.3450    3.2423 C   0  0  0  0  0  4           0  0  0
    3.9034   -2.5197    1.0102 C   0  0  0  0  0  4           0  0  0
    4.5960   -2.4871    2.3694 C   0  0  0  0  0  4           0  0  0
  1  6  2  0     0  0
  2  8  1  0     0  0
  2 18  1  0     0  0
  3  9  1  0     0  0
  3 19  1  0     0  0
  4  8  2  0     0  0
  4 10  1  0     0  0
  5 10  2  0     0  0
  5 11  1  0     0  0
  6 12  1  0     0  0
  7 10  1  0     0  0
  7 13  1  0     0  0
  8 12  1  0     0  0
  9 14  1  0     0  0
  9 15  2  0     0  0
 11 12  2  0     0  0
 13 14  2  0     0  0
 13 16  1  0     0  0
 15 17  1  0     0  0
 16 17  2  0     0  0
 18 20  1  0     0  0
 20 21  1  0     0  0
 20 22  1  0     0  0
 21 23  1  0     0  0
 22 24  1  0     0  0
 23 25  1  0     0  0
 24 25  1  0     0  0
M  END
> <Compound >
25

> <standard_type>
pIC50

> <# Confs.>
25

> <canonical_smiles>
O=NC(C(OCC1CCCCC1)=N2)=CN=C2NC3=CC(OC)=CC=C3

> <standard_relation>
=

> <predicted_activity_value>
6.055024091587952

> <actual_activity_value>
6.468521082957745

> <Publication ID>
nan

> <standard_units>
nM

> hash
10296047565698218180

$$$$
25_
XXILIB    08252103453D 0   0.00000     0.00000

 25 27  0     1  0            999 V2000
   -0.5811   -0.5491   -3.3506 O   0  0  0  0  0  2           0  0  0
    1.3872    0.0000   -0.0000 O   0  0  0  0  0  2           0  0  0
   -3.1984   -1.2282    7.0567 O   0  0  0  0  0  2           0  0  0
   -0.6678   -0.0000    1.1796 N   0  0  0  0  0  3           0  0  0
   -2.7261    0.0231   -0.0188 N   0  0  0  0  0  3           0  0  0
    0.0245    0.0159   -2.4322 N   0  0  0  0  0  3           0  0  0
   -2.6997    0.0072    2.3643 N   0  0  0  0  0  3           0  0  0
    0.0000    0.0000    0.0000 C   0  0  0  0  0  4           0  0  0
   -2.5337   -0.6548    6.0102 C   0  0  0  0  0  4           0  0  0
   -2.0218    0.0097    1.1382 C   0  0  0  0  0  4           0  0  0
   -2.0208    0.0208   -1.1703 C   0  0  0  0  0  4           0  0  0
   -0.6410    0.0012   -1.2281 C   0  0  0  0  0  4           0  0  0
   -2.2157   -0.0040    3.6746 C   0  0  0  0  0  4           0  0  0
   -2.9812   -0.6194    4.6830 C   0  0  0  0  0  4           0  0  0
   -1.3096   -0.0668    6.3358 C   0  0  0  0  0  4           0  0  0
   -0.9897    0.5783    4.0285 C   0  0  0  0  0  4           0  0  0
   -0.5409    0.5470    5.3495 C   0  0  0  0  0  4           0  0  0
    1.9728    0.0000    1.3020 C   0  0  0  0  0  4           0  0  0
   -4.4481   -1.8303    6.7284 C   0  0  0  0  0  4           0  0  0
    3.4920    0.0000    1.1550 C   0  0  1  0  0  4           0  0  0
    3.9802    1.2388    0.3891 C   0  0  0  0  0  4           0  0  0
    4.2149   -0.1117    2.5094 C   0  0  0  0  0  4           0  0  0
    3.8887    2.5212    1.2145 C   0  0  0  0  0  4           0  0  0
    4.1287    1.1694    3.3381 C   0  0  0  0  0  4           0  0  0
    4.6135    2.3825    2.5498 C   0  0  0  0  0  4           0  0  0
  1  6  2  0     0  0
  2  8  1  0     0  0
  2 18  1  0     0  0
  3  9  1  0     0  0
  3 19  1  0     0  0
  4  8  2  0     0  0
  4 10  1  0     0  0
  5 10  2  0     0  0
  5 11  1  0     0  0
  6 12  1  0     0  0
  7 10  1  0     0  0
  7 13  1  0     0  0
  8 12  1  0     0  0
  9 14  1  0     0  0
  9 15  2  0     0  0
 11 12  2  0     0  0
 13 14  2  0     0  0
 13 16  1  0     0  0
 15 17  1  0     0  0
 16 17  2  0     0  0
 18 20  1  0     0  0
 20 21  1  0     0  0
 20 22  1  0     0  0
 21 23  1  0     0  0
 22 24  1  0     0  0
 23 25  1  0     0  0
 24 25  1  0     0  0
M  END
> <Compound >
25

> <standard_type>
pIC50

> <# Confs.>
25

> <canonical_smiles>
O=NC(C(OCC1CCCCC1)=N2)=CN=C2NC3=CC(OC)=CC=C3

> <standard_relation>
=

> <predicted_activity_value>
6.055024091587952

> <actual_activity_value>
6.468521082957745

> <Publication ID>
nan

> <standard_units>
nM

> hash
10296047565698218180

$$$$
25_
XXILIB    08252103453D 0   0.00000     0.00000

 25 27  0     1  0            999 V2000
   -0.5811   -0.5491   -3.3506 O   0  0  0  0  0  2           0  0  0
    1.3872    0.0000   -0.0000 O   0  0  0  0  0  2           0  0  0
   -6.4265   -1.1871    5.2760 O   0  0  0  0  0  2           0  0  0
   -0.6678   -0.0000    1.1796 N   0  0  0  0  0  3           0  0  0
   -2.7261    0.0231   -0.0188 N   0  0  0  0  0  3           0  0  0
    0.0245    0.0159   -2.4322 N   0  0  0  0  0  3           0  0  0
   -2.6997    0.0072    2.3643 N   0  0  0  0  0  3           0  0  0
    0.0000    0.0000   -0.0000 C   0  0  0  0  0  4           0  0  0
   -5.8854   -0.6184    4.1581 C   0  0  0  0  0  4           0  0  0
   -2.0218    0.0097    1.1382 C   0  0  0  0  0  4           0  0  0
   -2.0208    0.0208   -1.1703 C   0  0  0  0  0  4           0  0  0
   -0.6410    0.0012   -1.2281 C   0  0  0  0  0  4           0  0  0
   -4.0668    0.0150    2.6512 C   0  0  0  0  0  4           0  0  0
   -4.5233   -0.6035    3.8304 C   0  0  0  0  0  4           0  0  0
   -6.8031   -0.0116    3.2979 C   0  0  0  0  0  4           0  0  0
   -5.0094    0.6176    1.8052 C   0  0  0  0  0  4           0  0  0
   -6.3672    0.6037    2.1267 C   0  0  0  0  0  4           0  0  0
    1.9728    0.0000    1.3020 C   0  0  0  0  0  4           0  0  0
   -5.4929   -1.8069    6.1571 C   0  0  0  0  0  4           0  0  0
    3.4920    0.0000    1.1550 C   0  0  1  0  0  4           0  0  0
    4.1868   -0.0000    2.5249 C   0  0  0  0  0  4           0  0  0
    4.0008   -1.1720    0.2963 C   0  0  0  0  0  4           0  0  0
    4.0849   -1.3450    3.2423 C   0  0  0  0  0  4           0  0  0
    3.9034   -2.5197    1.0102 C   0  0  0  0  0  4           0  0  0
    4.5960   -2.4871    2.3694 C   0  0  0  0  0  4           0  0  0
  1  6  2  0     0  0
  2  8  1  0     0  0
  2 18  1  0     0  0
  3  9  1  0     0  0
  3 19  1  0     0  0
  4  8  2  0     0  0
  4 10  1  0     0  0
  5 10  2  0     0  0
  5 11  1  0     0  0
  6 12  1  0     0  0
  7 10  1  0     0  0
  7 13  1  0     0  0
  8 12  1  0     0  0
  9 14  1  0     0  0
  9 15  2  0     0  0
 11 12  2  0     0  0
 13 14  2  0     0  0
 13 16  1  0     0  0
 15 17  1  0     0  0
 16 17  2  0     0  0
 18 20  1  0     0  0
 20 21  1  0     0  0
 20 22  1  0     0  0
 21 23  1  0     0  0
 22 24  1  0     0  0
 23 25  1  0     0  0
 24 25  1  0     0  0
M  END
> <Compound >
25

> <standard_type>
pIC50

> <# Confs.>
25

> <canonical_smiles>
O=NC(C(OCC1CCCCC1)=N2)=CN=C2NC3=CC(OC)=CC=C3

> <standard_relation>
=

> <predicted_activity_value>
6.055024091587952

> <actual_activity_value>
6.468521082957745

> <Publication ID>
nan

> <standard_units>
nM

> hash
10296047565698218180

$$$$
25_
XXILIB    08252103453D 0   0.00000     0.00000

 25 27  0     1  0            999 V2000
   -0.5811   -0.5491   -3.3506 O   0  0  0  0  0  2           0  0  0
    1.3872    0.0000   -0.0000 O   0  0  0  0  0  2           0  0  0
   -6.4106    1.2268    5.2857 O   0  0  0  0  0  2           0  0  0
   -0.6678   -0.0000    1.1796 N   0  0  0  0  0  3           0  0  0
   -2.7261    0.0231   -0.0188 N   0  0  0  0  0  3           0  0  0
    0.0245    0.0159   -2.4322 N   0  0  0  0  0  3           0  0  0
   -2.6997    0.0072    2.3643 N   0  0  0  0  0  3           0  0  0
    0.0000    0.0000   -0.0000 C   0  0  0  0  0  4           0  0  0
   -5.8768    0.6578    4.1646 C   0  0  0  0  0  4           0  0  0
   -2.0218    0.0097    1.1382 C   0  0  0  0  0  4           0  0  0
   -2.0208    0.0208   -1.1703 C   0  0  0  0  0  4           0  0  0
   -0.6410    0.0012   -1.2281 C   0  0  0  0  0  4           0  0  0
   -4.0668    0.0150    2.6512 C   0  0  0  0  0  4           0  0  0
   -4.5147    0.6259    3.8377 C   0  0  0  0  0  4           0  0  0
   -6.8024    0.0710    3.2991 C   0  0  0  0  0  4           0  0  0
   -5.0174   -0.5663    1.7993 C   0  0  0  0  0  4           0  0  0
   -6.3748   -0.5383    2.1217 C   0  0  0  0  0  4           0  0  0
    1.9728    0.0000    1.3020 C   0  0  0  0  0  4           0  0  0
   -5.4690    1.8277    6.1715 C   0  0  0  0  0  4           0  0  0
    3.4920    0.0000    1.1550 C   0  0  1  0  0  4           0  0  0
    4.1868   -0.0000    2.5249 C   0  0  0  0  0  4           0  0  0
    4.0008   -1.1720    0.2963 C   0  0  0  0  0  4           0  0  0
    4.0849   -1.3450    3.2423 C   0  0  0  0  0  4           0  0  0
    3.9034   -2.5197    1.0102 C   0  0  0  0  0  4           0  0  0
    4.5960   -2.4871    2.3694 C   0  0  0  0  0  4           0  0  0
  1  6  2  0     0  0
  2  8  1  0     0  0
  2 18  1  0     0  0
  3  9  1  0     0  0
  3 19  1  0     0  0
  4  8  2  0     0  0
  4 10  1  0     0  0
  5 10  2  0     0  0
  5 11  1  0     0  0
  6 12  1  0     0  0
  7 10  1  0     0  0
  7 13  1  0     0  0
  8 12  1  0     0  0
  9 14  1  0     0  0
  9 15  2  0     0  0
 11 12  2  0     0  0
 13 14  2  0     0  0
 13 16  1  0     0  0
 15 17  1  0     0  0
 16 17  2  0     0  0
 18 20  1  0     0  0
 20 21  1  0     0  0
 20 22  1  0     0  0
 21 23  1  0     0  0
 22 24  1  0     0  0
 23 25  1  0     0  0
 24 25  1  0     0  0
M  END
> <Compound >
25

> <standard_type>
pIC50

> <# Confs.>
25

> <canonical_smiles>
O=NC(C(OCC1CCCCC1)=N2)=CN=C2NC3=CC(OC)=CC=C3

> <standard_relation>
=

> <predicted_activity_value>
6.055024091587952

> <actual_activity_value>
6.468521082957745

> <Publication ID>
nan

> <standard_units>
nM

> hash
10296047565698218180

$$$$
25_
XXILIB    08252103453D 0   0.00000     0.00000

 25 27  0     1  0            999 V2000
   -0.5811   -0.5491   -3.3506 O   0  0  0  0  0  2           0  0  0
    1.3872    0.0000   -0.0000 O   0  0  0  0  0  2           0  0  0
   -3.1859    1.1856    7.0726 O   0  0  0  0  0  2           0  0  0
   -0.6678   -0.0000    1.1796 N   0  0  0  0  0  3           0  0  0
   -2.7261    0.0231   -0.0188 N   0  0  0  0  0  3           0  0  0
    0.0245    0.0159   -2.4322 N   0  0  0  0  0  3           0  0  0
   -2.6997    0.0072    2.3643 N   0  0  0  0  0  3           0  0  0
    0.0000    0.0000    0.0000 C   0  0  0  0  0  4           0  0  0
   -2.5259    0.6215    6.0181 C   0  0  0  0  0  4           0  0  0
   -2.0218    0.0097    1.1382 C   0  0  0  0  0  4           0  0  0
   -2.0208    0.0208   -1.1703 C   0  0  0  0  0  4           0  0  0
   -0.6410    0.0012   -1.2281 C   0  0  0  0  0  4           0  0  0
   -2.2157   -0.0040    3.6746 C   0  0  0  0  0  4           0  0  0
   -2.9727    0.6100    4.6903 C   0  0  0  0  0  4           0  0  0
   -1.3083    0.0158    6.3360 C   0  0  0  0  0  4           0  0  0
   -0.9969   -0.6056    4.0211 C   0  0  0  0  0  4           0  0  0
   -0.5472   -0.5950    5.3421 C   0  0  0  0  0  4           0  0  0
    1.9728    0.0000    1.3020 C   0  0  0  0  0  4           0  0  0
   -4.4296    1.8043    6.7525 C   0  0  0  0  0  4           0  0  0
    3.4920    0.0000    1.1550 C   0  0  1  0  0  4           0  0  0
    3.9802    1.2388    0.3891 C   0  0  0  0  0  4           0  0  0
    4.2149   -0.1117    2.5094 C   0  0  0  0  0  4           0  0  0
    3.8887    2.5212    1.2145 C   0  0  0  0  0  4           0  0  0
    4.1287    1.1694    3.3381 C   0  0  0  0  0  4           0  0  0
    4.6135    2.3825    2.5498 C   0  0  0  0  0  4           0  0  0
  1  6  2  0     0  0
  2  8  1  0     0  0
  2 18  1  0     0  0
  3  9  1  0     0  0
  3 19  1  0     0  0
  4  8  2  0     0  0
  4 10  1  0     0  0
  5 10  2  0     0  0
  5 11  1  0     0  0
  6 12  1  0     0  0
  7 10  1  0     0  0
  7 13  1  0     0  0
  8 12  1  0     0  0
  9 14  1  0     0  0
  9 15  2  0     0  0
 11 12  2  0     0  0
 13 14  2  0     0  0
 13 16  1  0     0  0
 15 17  1  0     0  0
 16 17  2  0     0  0
 18 20  1  0     0  0
 20 21  1  0     0  0
 20 22  1  0     0  0
 21 23  1  0     0  0
 22 24  1  0     0  0
 23 25  1  0     0  0
 24 25  1  0     0  0
M  END
> <Compound >
25

> <standard_type>
pIC50

> <# Confs.>
25

> <canonical_smiles>
O=NC(C(OCC1CCCCC1)=N2)=CN=C2NC3=CC(OC)=CC=C3

> <standard_relation>
=

> <predicted_activity_value>
6.055024091587952

> <actual_activity_value>
6.468521082957745

> <Publication ID>
nan

> <standard_units>
nM

> hash
10296047565698218180

$$$$
25_
XXILIB    08252103453D 0   0.00000     0.00000

 25 27  0     1  0            999 V2000
   -0.5811   -0.5491   -3.3506 O   0  0  0  0  0  2           0  0  0
    1.3872    0.0000   -0.0000 O   0  0  0  0  0  2           0  0  0
   -6.4265   -1.1871    5.2760 O   0  0  0  0  0  2           0  0  0
   -0.6678   -0.0000    1.1796 N   0  0  0  0  0  3           0  0  0
   -2.7261    0.0231   -0.0188 N   0  0  0  0  0  3           0  0  0
    0.0245    0.0159   -2.4322 N   0  0  0  0  0  3           0  0  0
   -2.6997    0.0072    2.3643 N   0  0  0  0  0  3           0  0  0
    0.0000    0.0000   -0.0000 C   0  0  0  0  0  4           0  0  0
   -5.8854   -0.6184    4.1581 C   0  0  0  0  0  4           0  0  0
   -2.0218    0.0097    1.1382 C   0  0  0  0  0  4           0  0  0
   -2.0208    0.0208   -1.1703 C   0  0  0  0  0  4           0  0  0
   -0.6410    0.0012   -1.2281 C   0  0  0  0  0  4           0  0  0
   -4.0668    0.0150    2.6512 C   0  0  0  0  0  4           0  0  0
   -4.5233   -0.6035    3.8304 C   0  0  0  0  0  4           0  0  0
   -6.8031   -0.0116    3.2979 C   0  0  0  0  0  4           0  0  0
   -5.0094    0.6176    1.8052 C   0  0  0  0  0  4           0  0  0
   -6.3672    0.6037    2.1267 C   0  0  0  0  0  4           0  0  0
    1.9728    0.0000    1.3020 C   0  0  0  0  0  4           0  0  0
   -5.4929   -1.8069    6.1571 C   0  0  0  0  0  4           0  0  0
    3.4920    0.0000    1.1550 C   0  0  1  0  0  4           0  0  0
    3.9802    1.2388    0.3891 C   0  0  0  0  0  4           0  0  0
    4.2149   -0.1117    2.5094 C   0  0  0  0  0  4           0  0  0
    3.8887    2.5212    1.2145 C   0  0  0  0  0  4           0  0  0
    4.1287    1.1694    3.3381 C   0  0  0  0  0  4           0  0  0
    4.6135    2.3825    2.5498 C   0  0  0  0  0  4           0  0  0
  1  6  2  0     0  0
  2  8  1  0     0  0
  2 18  1  0     0  0
  3  9  1  0     0  0
  3 19  1  0     0  0
  4  8  2  0     0  0
  4 10  1  0     0  0
  5 10  2  0     0  0
  5 11  1  0     0  0
  6 12  1  0     0  0
  7 10  1  0     0  0
  7 13  1  0     0  0
  8 12  1  0     0  0
  9 14  1  0     0  0
  9 15  2  0     0  0
 11 12  2  0     0  0
 13 14  2  0     0  0
 13 16  1  0     0  0
 15 17  1  0     0  0
 16 17  2  0     0  0
 18 20  1  0     0  0
 20 21  1  0     0  0
 20 22  1  0     0  0
 21 23  1  0     0  0
 22 24  1  0     0  0
 23 25  1  0     0  0
 24 25  1  0     0  0
M  END
> <Compound >
25

> <standard_type>
pIC50

> <# Confs.>
25

> <canonical_smiles>
O=NC(C(OCC1CCCCC1)=N2)=CN=C2NC3=CC(OC)=CC=C3

> <standard_relation>
=

> <predicted_activity_value>
6.055024091587952

> <actual_activity_value>
6.468521082957745

> <Publication ID>
nan

> <standard_units>
nM

> hash
10296047565698218180

$$$$
23_
XXILIB    08252103453D 0   0.00000     0.00000

 31 33  0     1  0            999 V2000
    5.3922    0.0540    4.4402 S   0  0  2  0  0  6           0  0  0
    5.0729   -1.0631    5.3095 O   0  0  0  0  0  2           0  0  0
    6.7082    0.1576    3.8380 O   0  0  0  0  0  2           0  0  0
   -4.5673   -0.5792   -1.1312 O   0  0  0  0  0  2           0  0  0
   -2.7434    0.0289    2.3192 O   0  0  0  0  0  2           0  0  0
   -0.6711   -0.0000    1.1778 N   0  0  0  0  0  3           0  0  0
   -0.6205    0.0032   -1.2019 N   0  0  0  0  0  3           0  0  0
    5.0139    1.5361    5.2512 N   0  0  1  0  0  3           0  0  0
   -4.1153   -0.0009   -0.1358 N   0  0  0  0  0  3           0  0  0
    1.4050   -0.0000    0.0000 N   0  0  0  0  0  3           0  0  0
    4.2032    0.0516    3.1349 C   0  0  0  0  0  4           0  0  0
   -2.0261   -0.0010    1.1345 C   0  0  0  0  0  4           0  0  0
    0.0000    0.0000    0.0000 C   0  0  0  0  0  4           0  0  0
   -1.9717   -0.0013   -1.1987 C   0  0  0  0  0  4           0  0  0
   -2.7422   -0.0153   -0.0527 C   0  0  0  0  0  4           0  0  0
    2.3186   -0.0000    1.0572 C   0  0  0  0  0  4           0  0  0
    4.5143    0.6380    1.9115 C   0  0  0  0  0  4           0  0  0
    2.9732   -0.5707    3.3349 C   0  0  0  0  0  4           0  0  0
    3.5707    0.6131    0.8820 C   0  0  0  0  0  4           0  0  0
    2.0364   -0.5921    2.2984 C   0  0  0  0  0  4           0  0  0
   -1.9323    0.0585    3.4935 C   0  0  0  0  0  4           0  0  0
    5.1244    2.7815    4.4488 C   0  0  0  0  0  4           0  0  0
    3.7704    1.5019    6.0833 C   0  0  0  0  0  4           0  0  0
   -2.8427    0.0895    4.7186 C   0  0  1  0  0  4           0  0  0
   -3.7533   -1.1489    4.7755 C   0  0  0  0  0  4           0  0  0
   -2.0095    0.2094    6.0020 C   0  0  0  0  0  4           0  0  0
   -4.6280   -1.1501    6.0280 C   0  0  0  0  0  4           0  0  0
   -2.8886    0.2084    7.2503 C   0  0  0  0  0  4           0  0  0
   -3.7959   -1.0162    7.2990 C   0  0  0  0  0  4           0  0  0
    5.4972    3.9521    5.3412 C   0  0  0  0  0  4           0  0  0
    4.0971    1.0693    7.5017 C   0  0  0  0  0  4           0  0  0
  1  2  2  0     0  0
  1  3  2  0     0  0
  1  8  1  0     0  0
  1 11  1  0     0  0
  4  9  2  0     0  0
  5 12  1  0     0  0
  5 21  1  0     0  0
  6 12  2  0     0  0
  6 13  1  0     0  0
  7 13  2  0     0  0
  7 14  1  0     0  0
  8 22  1  0     0  0
  8 23  1  0     0  0
  9 15  1  0     0  0
 10 13  1  0     0  0
 10 16  1  0     0  0
 11 17  1  0     0  0
 11 18  2  0     0  0
 12 15  1  0     0  0
 14 15  2  0     0  0
 16 19  1  0     0  0
 16 20  2  0     0  0
 17 19  2  0     0  0
 18 20  1  0     0  0
 21 24  1  0     0  0
 22 30  1  0     0  0
 23 31  1  0     0  0
 24 25  1  0     0  0
 24 26  1  0     0  0
 25 27  1  0     0  0
 26 28  1  0     0  0
 27 29  1  0     0  0
 28 29  1  0     0  0
M  END
> <Compound >
23

> <standard_type>
pIC50

> <# Confs.>
25

> <canonical_smiles>
O=S(C(C=C1)=CC=C1NC2=NC=C(N=O)C(OCC3CCCCC3)=N2)(N(CC)CC)=O

> <standard_relation>
=

> <predicted_activity_value>
7.288192770958809

> <actual_activity_value>
7.0655015487564325

> <Publication ID>
nan

> <standard_units>
nM

> hash
11374675463381991714

$$$$
23_
XXILIB    08252103453D 0   0.00000     0.00000

 31 33  0     1  0            999 V2000
    5.3845   -0.0716    4.4469 S   0  0  2  0  0  6           0  0  0
    6.6956   -0.2332    3.8465 O   0  0  0  0  0  2           0  0  0
    5.1124    1.0606    5.3125 O   0  0  0  0  0  2           0  0  0
   -4.5673   -0.5792   -1.1312 O   0  0  0  0  0  2           0  0  0
   -2.7434    0.0289    2.3192 O   0  0  0  0  0  2           0  0  0
   -0.6711   -0.0000    1.1778 N   0  0  0  0  0  3           0  0  0
   -0.6205    0.0032   -1.2019 N   0  0  0  0  0  3           0  0  0
    4.9435   -1.5350    5.2601 N   0  0  1  0  0  3           0  0  0
   -4.1153   -0.0009   -0.1358 N   0  0  0  0  0  3           0  0  0
    1.4050    0.0000    0.0000 N   0  0  0  0  0  3           0  0  0
    4.2115   -0.0327    3.1277 C   0  0  0  0  0  4           0  0  0
   -2.0261   -0.0010    1.1345 C   0  0  0  0  0  4           0  0  0
    0.0000    0.0000    0.0000 C   0  0  0  0  0  4           0  0  0
   -1.9717   -0.0013   -1.1987 C   0  0  0  0  0  4           0  0  0
   -2.7422   -0.0153   -0.0527 C   0  0  0  0  0  4           0  0  0
    2.3186    0.0000    1.0572 C   0  0  0  0  0  4           0  0  0
    4.5151   -0.6361    1.9108 C   0  0  0  0  0  4           0  0  0
    2.9752    0.5754    3.3331 C   0  0  0  0  0  4           0  0  0
    3.5707   -0.6131    0.8820 C   0  0  0  0  0  4           0  0  0
    2.0362    0.5916    2.2986 C   0  0  0  0  0  4           0  0  0
   -1.9323    0.0585    3.4935 C   0  0  0  0  0  4           0  0  0
    3.5599   -1.6081    5.7962 C   0  0  0  0  0  4           0  0  0
    5.3524   -2.7941    4.5621 C   0  0  0  0  0  4           0  0  0
   -2.8427    0.0895    4.7186 C   0  0  1  0  0  4           0  0  0
   -3.7533   -1.1489    4.7755 C   0  0  0  0  0  4           0  0  0
   -2.0095    0.2094    6.0020 C   0  0  0  0  0  4           0  0  0
   -4.6280   -1.1501    6.0280 C   0  0  0  0  0  4           0  0  0
   -2.8886    0.2084    7.2503 C   0  0  0  0  0  4           0  0  0
   -3.7959   -1.0162    7.2990 C   0  0  0  0  0  4           0  0  0
    3.5183   -2.4946    7.0283 C   0  0  0  0  0  4           0  0  0
    6.7367   -3.2225    5.0158 C   0  0  0  0  0  4           0  0  0
  1  2  2  0     0  0
  1  3  2  0     0  0
  1  8  1  0     0  0
  1 11  1  0     0  0
  4  9  2  0     0  0
  5 12  1  0     0  0
  5 21  1  0     0  0
  6 12  2  0     0  0
  6 13  1  0     0  0
  7 13  2  0     0  0
  7 14  1  0     0  0
  8 22  1  0     0  0
  8 23  1  0     0  0
  9 15  1  0     0  0
 10 13  1  0     0  0
 10 16  1  0     0  0
 11 17  1  0     0  0
 11 18  2  0     0  0
 12 15  1  0     0  0
 14 15  2  0     0  0
 16 19  1  0     0  0
 16 20  2  0     0  0
 17 19  2  0     0  0
 18 20  1  0     0  0
 21 24  1  0     0  0
 22 30  1  0     0  0
 23 31  1  0     0  0
 24 25  1  0     0  0
 24 26  1  0     0  0
 25 27  1  0     0  0
 26 28  1  0     0  0
 27 29  1  0     0  0
 28 29  1  0     0  0
M  END
> <Compound >
23

> <standard_type>
pIC50

> <# Confs.>
25

> <canonical_smiles>
O=S(C(C=C1)=CC=C1NC2=NC=C(N=O)C(OCC3CCCCC3)=N2)(N(CC)CC)=O

> <standard_relation>
=

> <predicted_activity_value>
7.288192770958809

> <actual_activity_value>
7.0655015487564325

> <Publication ID>
nan

> <standard_units>
nM

> hash
11374675463381991714

$$$$
23_
XXILIB    08252103453D 0   0.00000     0.00000

 31 33  0     1  0            999 V2000
    5.3845   -0.0716    4.4469 S   0  0  2  0  0  6           0  0  0
    4.6396    0.0714    5.6838 O   0  0  0  0  0  2           0  0  0
    6.2427   -1.2231    4.2402 O   0  0  0  0  0  2           0  0  0
   -4.5673   -0.5792   -1.1312 O   0  0  0  0  0  2           0  0  0
   -2.7434    0.0289    2.3192 O   0  0  0  0  0  2           0  0  0
   -0.6711   -0.0000    1.1778 N   0  0  0  0  0  3           0  0  0
   -0.6205    0.0032   -1.2019 N   0  0  0  0  0  3           0  0  0
    6.2863    1.3766    4.1517 N   0  0  1  0  0  3           0  0  0
   -4.1153   -0.0009   -0.1358 N   0  0  0  0  0  3           0  0  0
    1.4050    0.0000    0.0000 N   0  0  0  0  0  3           0  0  0
    4.2115   -0.0327    3.1277 C   0  0  0  0  0  4           0  0  0
   -2.0261   -0.0010    1.1345 C   0  0  0  0  0  4           0  0  0
    0.0000    0.0000    0.0000 C   0  0  0  0  0  4           0  0  0
   -1.9717   -0.0013   -1.1987 C   0  0  0  0  0  4           0  0  0
   -2.7422   -0.0153   -0.0527 C   0  0  0  0  0  4           0  0  0
    2.3186    0.0000    1.0572 C   0  0  0  0  0  4           0  0  0
    4.5151   -0.6361    1.9108 C   0  0  0  0  0  4           0  0  0
    2.9752    0.5754    3.3331 C   0  0  0  0  0  4           0  0  0
    3.5707   -0.6131    0.8820 C   0  0  0  0  0  4           0  0  0
    2.0362    0.5916    2.2986 C   0  0  0  0  0  4           0  0  0
   -1.9323    0.0585    3.4935 C   0  0  0  0  0  4           0  0  0
    6.9828    1.4725    2.8430 C   0  0  0  0  0  4           0  0  0
    5.5822    2.6455    4.5178 C   0  0  0  0  0  4           0  0  0
   -2.8427    0.0895    4.7186 C   0  0  1  0  0  4           0  0  0
   -3.7533   -1.1489    4.7755 C   0  0  0  0  0  4           0  0  0
   -2.0095    0.2094    6.0020 C   0  0  0  0  0  4           0  0  0
   -4.6280   -1.1501    6.0280 C   0  0  0  0  0  4           0  0  0
   -2.8886    0.2084    7.2503 C   0  0  0  0  0  4           0  0  0
   -3.7959   -1.0162    7.2990 C   0  0  0  0  0  4           0  0  0
    8.2367    2.3188    2.9740 C   0  0  0  0  0  4           0  0  0
    5.8828    3.0182    5.9588 C   0  0  0  0  0  4           0  0  0
  1  2  2  0     0  0
  1  3  2  0     0  0
  1  8  1  0     0  0
  1 11  1  0     0  0
  4  9  2  0     0  0
  5 12  1  0     0  0
  5 21  1  0     0  0
  6 12  2  0     0  0
  6 13  1  0     0  0
  7 13  2  0     0  0
  7 14  1  0     0  0
  8 22  1  0     0  0
  8 23  1  0     0  0
  9 15  1  0     0  0
 10 13  1  0     0  0
 10 16  1  0     0  0
 11 17  1  0     0  0
 11 18  2  0     0  0
 12 15  1  0     0  0
 14 15  2  0     0  0
 16 19  1  0     0  0
 16 20  2  0     0  0
 17 19  2  0     0  0
 18 20  1  0     0  0
 21 24  1  0     0  0
 22 30  1  0     0  0
 23 31  1  0     0  0
 24 25  1  0     0  0
 24 26  1  0     0  0
 25 27  1  0     0  0
 26 28  1  0     0  0
 27 29  1  0     0  0
 28 29  1  0     0  0
M  END
> <Compound >
23

> <standard_type>
pIC50

> <# Confs.>
25

> <canonical_smiles>
O=S(C(C=C1)=CC=C1NC2=NC=C(N=O)C(OCC3CCCCC3)=N2)(N(CC)CC)=O

> <standard_relation>
=

> <predicted_activity_value>
7.288192770958809

> <actual_activity_value>
7.0655015487564325

> <Publication ID>
nan

> <standard_units>
nM

> hash
11374675463381991714

$$$$
23_
XXILIB    08252103453D 0   0.00000     0.00000

 31 33  0     1  0            999 V2000
    5.3845   -0.0716    4.4469 S   0  0  2  0  0  6           0  0  0
    6.4909   -0.9020    4.0089 O   0  0  0  0  0  2           0  0  0
    5.6205    1.2969    4.8676 O   0  0  0  0  0  2           0  0  0
   -4.5673   -0.5792   -1.1312 O   0  0  0  0  0  2           0  0  0
   -2.7434    0.0289    2.3192 O   0  0  0  0  0  2           0  0  0
   -0.6711   -0.0000    1.1778 N   0  0  0  0  0  3           0  0  0
   -0.6205    0.0032   -1.2019 N   0  0  0  0  0  3           0  0  0
    4.4958   -0.9051    5.6769 N   0  0  1  0  0  3           0  0  0
   -4.1153   -0.0009   -0.1358 N   0  0  0  0  0  3           0  0  0
    1.4050    0.0000   -0.0000 N   0  0  0  0  0  3           0  0  0
    4.2115   -0.0327    3.1277 C   0  0  0  0  0  4           0  0  0
   -2.0261   -0.0010    1.1345 C   0  0  0  0  0  4           0  0  0
    0.0000    0.0000    0.0000 C   0  0  0  0  0  4           0  0  0
   -1.9717   -0.0013   -1.1987 C   0  0  0  0  0  4           0  0  0
   -2.7422   -0.0153   -0.0527 C   0  0  0  0  0  4           0  0  0
    2.3186    0.0000    1.0572 C   0  0  0  0  0  4           0  0  0
    4.5151   -0.6361    1.9108 C   0  0  0  0  0  4           0  0  0
    2.9752    0.5754    3.3331 C   0  0  0  0  0  4           0  0  0
    3.5707   -0.6131    0.8820 C   0  0  0  0  0  4           0  0  0
    2.0362    0.5916    2.2986 C   0  0  0  0  0  4           0  0  0
   -1.9323    0.0585    3.4935 C   0  0  0  0  0  4           0  0  0
    4.0378   -2.2804    5.3515 C   0  0  0  0  0  4           0  0  0
    5.0767   -0.8075    7.0527 C   0  0  0  0  0  4           0  0  0
   -2.8427    0.0895    4.7186 C   0  0  1  0  0  4           0  0  0
   -3.7533   -1.1489    4.7755 C   0  0  0  0  0  4           0  0  0
   -2.0095    0.2094    6.0020 C   0  0  0  0  0  4           0  0  0
   -4.6280   -1.1501    6.0280 C   0  0  0  0  0  4           0  0  0
   -2.8886    0.2084    7.2503 C   0  0  0  0  0  4           0  0  0
   -3.7959   -1.0162    7.2990 C   0  0  0  0  0  4           0  0  0
    2.7498   -2.5958    6.0914 C   0  0  0  0  0  4           0  0  0
    4.5132    0.4015    7.7782 C   0  0  0  0  0  4           0  0  0
  1  2  2  0     0  0
  1  3  2  0     0  0
  1  8  1  0     0  0
  1 11  1  0     0  0
  4  9  2  0     0  0
  5 12  1  0     0  0
  5 21  1  0     0  0
  6 12  2  0     0  0
  6 13  1  0     0  0
  7 13  2  0     0  0
  7 14  1  0     0  0
  8 22  1  0     0  0
  8 23  1  0     0  0
  9 15  1  0     0  0
 10 13  1  0     0  0
 10 16  1  0     0  0
 11 17  1  0     0  0
 11 18  2  0     0  0
 12 15  1  0     0  0
 14 15  2  0     0  0
 16 19  1  0     0  0
 16 20  2  0     0  0
 17 19  2  0     0  0
 18 20  1  0     0  0
 21 24  1  0     0  0
 22 30  1  0     0  0
 23 31  1  0     0  0
 24 25  1  0     0  0
 24 26  1  0     0  0
 25 27  1  0     0  0
 26 28  1  0     0  0
 27 29  1  0     0  0
 28 29  1  0     0  0
M  END
> <Compound >
23

> <standard_type>
pIC50

> <# Confs.>
25

> <canonical_smiles>
O=S(C(C=C1)=CC=C1NC2=NC=C(N=O)C(OCC3CCCCC3)=N2)(N(CC)CC)=O

> <standard_relation>
=

> <predicted_activity_value>
7.288192770958809

> <actual_activity_value>
7.0655015487564325

> <Publication ID>
nan

> <standard_units>
nM

> hash
11374675463381991714

$$$$
23_
XXILIB    08252103453D 0   0.00000     0.00000

 31 33  0     1  0            999 V2000
    5.3922    0.0540    4.4402 S   0  0  2  0  0  6           0  0  0
    5.0729   -1.0631    5.3095 O   0  0  0  0  0  2           0  0  0
    6.7082    0.1576    3.8380 O   0  0  0  0  0  2           0  0  0
   -4.5673   -0.5792   -1.1312 O   0  0  0  0  0  2           0  0  0
   -2.7434    0.0289    2.3192 O   0  0  0  0  0  2           0  0  0
   -0.6711   -0.0000    1.1778 N   0  0  0  0  0  3           0  0  0
   -0.6205    0.0032   -1.2019 N   0  0  0  0  0  3           0  0  0
    5.0139    1.5361    5.2512 N   0  0  1  0  0  3           0  0  0
   -4.1153   -0.0009   -0.1358 N   0  0  0  0  0  3           0  0  0
    1.4050   -0.0000    0.0000 N   0  0  0  0  0  3           0  0  0
    4.2032    0.0516    3.1349 C   0  0  0  0  0  4           0  0  0
   -2.0261   -0.0010    1.1345 C   0  0  0  0  0  4           0  0  0
    0.0000    0.0000    0.0000 C   0  0  0  0  0  4           0  0  0
   -1.9717   -0.0013   -1.1987 C   0  0  0  0  0  4           0  0  0
   -2.7422   -0.0153   -0.0527 C   0  0  0  0  0  4           0  0  0
    2.3186   -0.0000    1.0572 C   0  0  0  0  0  4           0  0  0
    4.5143    0.6380    1.9115 C   0  0  0  0  0  4           0  0  0
    2.9732   -0.5707    3.3349 C   0  0  0  0  0  4           0  0  0
    3.5707    0.6131    0.8820 C   0  0  0  0  0  4           0  0  0
    2.0364   -0.5921    2.2984 C   0  0  0  0  0  4           0  0  0
   -1.9323    0.0585    3.4935 C   0  0  0  0  0  4           0  0  0
    5.1244    2.7815    4.4488 C   0  0  0  0  0  4           0  0  0
    3.7704    1.5019    6.0833 C   0  0  0  0  0  4           0  0  0
   -2.8427    0.0895    4.7186 C   0  0  1  0  0  4           0  0  0
   -2.0298    0.1224    6.0240 C   0  0  0  0  0  4           0  0  0
   -3.7990    1.2877    4.6449 C   0  0  0  0  0  4           0  0  0
   -2.9352    0.2084    7.2515 C   0  0  0  0  0  4           0  0  0
   -4.7018    1.3683    5.8735 C   0  0  0  0  0  4           0  0  0
   -3.8930    1.3921    7.1660 C   0  0  0  0  0  4           0  0  0
    5.4972    3.9521    5.3412 C   0  0  0  0  0  4           0  0  0
    4.0971    1.0693    7.5017 C   0  0  0  0  0  4           0  0  0
  1  2  2  0     0  0
  1  3  2  0     0  0
  1  8  1  0     0  0
  1 11  1  0     0  0
  4  9  2  0     0  0
  5 12  1  0     0  0
  5 21  1  0     0  0
  6 12  2  0     0  0
  6 13  1  0     0  0
  7 13  2  0     0  0
  7 14  1  0     0  0
  8 22  1  0     0  0
  8 23  1  0     0  0
  9 15  1  0     0  0
 10 13  1  0     0  0
 10 16  1  0     0  0
 11 17  1  0     0  0
 11 18  2  0     0  0
 12 15  1  0     0  0
 14 15  2  0     0  0
 16 19  1  0     0  0
 16 20  2  0     0  0
 17 19  2  0     0  0
 18 20  1  0     0  0
 21 24  1  0     0  0
 22 30  1  0     0  0
 23 31  1  0     0  0
 24 25  1  0     0  0
 24 26  1  0     0  0
 25 27  1  0     0  0
 26 28  1  0     0  0
 27 29  1  0     0  0
 28 29  1  0     0  0
M  END
> <Compound >
23

> <standard_type>
pIC50

> <# Confs.>
25

> <canonical_smiles>
O=S(C(C=C1)=CC=C1NC2=NC=C(N=O)C(OCC3CCCCC3)=N2)(N(CC)CC)=O

> <standard_relation>
=

> <predicted_activity_value>
7.288192770958809

> <actual_activity_value>
7.0655015487564325

> <Publication ID>
nan

> <standard_units>
nM

> hash
11374675463381991714

$$$$
23_
XXILIB    08252103453D 0   0.00000     0.00000

 31 33  0     1  0            999 V2000
    5.3922    0.0540    4.4402 S   0  0  2  0  0  6           0  0  0
    6.2854    1.1722    4.2010 O   0  0  0  0  0  2           0  0  0
    4.6702   -0.0484    5.6946 O   0  0  0  0  0  2           0  0  0
   -4.5673   -0.5792   -1.1312 O   0  0  0  0  0  2           0  0  0
   -2.7434    0.0289    2.3192 O   0  0  0  0  0  2           0  0  0
   -0.6711   -0.0000    1.1778 N   0  0  0  0  0  3           0  0  0
   -0.6205    0.0032   -1.2019 N   0  0  0  0  0  3           0  0  0
    6.2376   -1.4272    4.1420 N   0  0  1  0  0  3           0  0  0
   -4.1153   -0.0009   -0.1358 N   0  0  0  0  0  3           0  0  0
    1.4050   -0.0000    0.0000 N   0  0  0  0  0  3           0  0  0
    4.2032    0.0516    3.1349 C   0  0  0  0  0  4           0  0  0
   -2.0261   -0.0010    1.1345 C   0  0  0  0  0  4           0  0  0
    0.0000    0.0000    0.0000 C   0  0  0  0  0  4           0  0  0
   -1.9717   -0.0013   -1.1987 C   0  0  0  0  0  4           0  0  0
   -2.7422   -0.0153   -0.0527 C   0  0  0  0  0  4           0  0  0
    2.3186   -0.0000    1.0572 C   0  0  0  0  0  4           0  0  0
    4.5143    0.6380    1.9115 C   0  0  0  0  0  4           0  0  0
    2.9732   -0.5707    3.3349 C   0  0  0  0  0  4           0  0  0
    3.5707    0.6131    0.8820 C   0  0  0  0  0  4           0  0  0
    2.0364   -0.5921    2.2984 C   0  0  0  0  0  4           0  0  0
   -1.9323    0.0585    3.4935 C   0  0  0  0  0  4           0  0  0
    5.4305   -2.6740    4.1798 C   0  0  0  0  0  4           0  0  0
    7.1818   -1.3936    2.9813 C   0  0  0  0  0  4           0  0  0
   -2.8427    0.0895    4.7186 C   0  0  1  0  0  4           0  0  0
   -3.7533   -1.1489    4.7755 C   0  0  0  0  0  4           0  0  0
   -2.0095    0.2094    6.0020 C   0  0  0  0  0  4           0  0  0
   -4.6280   -1.1501    6.0280 C   0  0  0  0  0  4           0  0  0
   -2.8886    0.2084    7.2503 C   0  0  0  0  0  4           0  0  0
   -3.7959   -1.0162    7.2990 C   0  0  0  0  0  4           0  0  0
    6.2865   -3.8422    4.6363 C   0  0  0  0  0  4           0  0  0
    8.5628   -0.9576    3.4378 C   0  0  0  0  0  4           0  0  0
  1  2  2  0     0  0
  1  3  2  0     0  0
  1  8  1  0     0  0
  1 11  1  0     0  0
  4  9  2  0     0  0
  5 12  1  0     0  0
  5 21  1  0     0  0
  6 12  2  0     0  0
  6 13  1  0     0  0
  7 13  2  0     0  0
  7 14  1  0     0  0
  8 22  1  0     0  0
  8 23  1  0     0  0
  9 15  1  0     0  0
 10 13  1  0     0  0
 10 16  1  0     0  0
 11 17  1  0     0  0
 11 18  2  0     0  0
 12 15  1  0     0  0
 14 15  2  0     0  0
 16 19  1  0     0  0
 16 20  2  0     0  0
 17 19  2  0     0  0
 18 20  1  0     0  0
 21 24  1  0     0  0
 22 30  1  0     0  0
 23 31  1  0     0  0
 24 25  1  0     0  0
 24 26  1  0     0  0
 25 27  1  0     0  0
 26 28  1  0     0  0
 27 29  1  0     0  0
 28 29  1  0     0  0
M  END
> <Compound >
23

> <standard_type>
pIC50

> <# Confs.>
25

> <canonical_smiles>
O=S(C(C=C1)=CC=C1NC2=NC=C(N=O)C(OCC3CCCCC3)=N2)(N(CC)CC)=O

> <standard_relation>
=

> <predicted_activity_value>
7.288192770958809

> <actual_activity_value>
7.0655015487564325

> <Publication ID>
nan

> <standard_units>
nM

> hash
11374675463381991714

$$$$
23_
XXILIB    08252103453D 0   0.00000     0.00000

 31 33  0     1  0            999 V2000
    5.3845   -0.0716    4.4469 S   0  0  2  0  0  6           0  0  0
    6.6956   -0.2332    3.8465 O   0  0  0  0  0  2           0  0  0
    5.1124    1.0606    5.3125 O   0  0  0  0  0  2           0  0  0
   -4.5673   -0.5792   -1.1312 O   0  0  0  0  0  2           0  0  0
   -2.7434    0.0289    2.3192 O   0  0  0  0  0  2           0  0  0
   -0.6711   -0.0000    1.1778 N   0  0  0  0  0  3           0  0  0
   -0.6205    0.0032   -1.2019 N   0  0  0  0  0  3           0  0  0
    4.9435   -1.5350    5.2601 N   0  0  1  0  0  3           0  0  0
   -4.1153   -0.0009   -0.1358 N   0  0  0  0  0  3           0  0  0
    1.4050    0.0000    0.0000 N   0  0  0  0  0  3           0  0  0
    4.2115   -0.0327    3.1277 C   0  0  0  0  0  4           0  0  0
   -2.0261   -0.0010    1.1345 C   0  0  0  0  0  4           0  0  0
    0.0000    0.0000    0.0000 C   0  0  0  0  0  4           0  0  0
   -1.9717   -0.0013   -1.1987 C   0  0  0  0  0  4           0  0  0
   -2.7422   -0.0153   -0.0527 C   0  0  0  0  0  4           0  0  0
    2.3186    0.0000    1.0572 C   0  0  0  0  0  4           0  0  0
    4.5151   -0.6361    1.9108 C   0  0  0  0  0  4           0  0  0
    2.9752    0.5754    3.3331 C   0  0  0  0  0  4           0  0  0
    3.5707   -0.6131    0.8820 C   0  0  0  0  0  4           0  0  0
    2.0362    0.5916    2.2986 C   0  0  0  0  0  4           0  0  0
   -1.9323    0.0585    3.4935 C   0  0  0  0  0  4           0  0  0
    3.5599   -1.6081    5.7962 C   0  0  0  0  0  4           0  0  0
    5.3524   -2.7941    4.5621 C   0  0  0  0  0  4           0  0  0
   -2.8427    0.0895    4.7186 C   0  0  1  0  0  4           0  0  0
   -2.0298    0.1224    6.0240 C   0  0  0  0  0  4           0  0  0
   -3.7990    1.2877    4.6449 C   0  0  0  0  0  4           0  0  0
   -2.9352    0.2084    7.2515 C   0  0  0  0  0  4           0  0  0
   -4.7018    1.3683    5.8735 C   0  0  0  0  0  4           0  0  0
   -3.8930    1.3921    7.1660 C   0  0  0  0  0  4           0  0  0
    3.5183   -2.4946    7.0283 C   0  0  0  0  0  4           0  0  0
    6.7367   -3.2225    5.0158 C   0  0  0  0  0  4           0  0  0
  1  2  2  0     0  0
  1  3  2  0     0  0
  1  8  1  0     0  0
  1 11  1  0     0  0
  4  9  2  0     0  0
  5 12  1  0     0  0
  5 21  1  0     0  0
  6 12  2  0     0  0
  6 13  1  0     0  0
  7 13  2  0     0  0
  7 14  1  0     0  0
  8 22  1  0     0  0
  8 23  1  0     0  0
  9 15  1  0     0  0
 10 13  1  0     0  0
 10 16  1  0     0  0
 11 17  1  0     0  0
 11 18  2  0     0  0
 12 15  1  0     0  0
 14 15  2  0     0  0
 16 19  1  0     0  0
 16 20  2  0     0  0
 17 19  2  0     0  0
 18 20  1  0     0  0
 21 24  1  0     0  0
 22 30  1  0     0  0
 23 31  1  0     0  0
 24 25  1  0     0  0
 24 26  1  0     0  0
 25 27  1  0     0  0
 26 28  1  0     0  0
 27 29  1  0     0  0
 28 29  1  0     0  0
M  END
> <Compound >
23

> <standard_type>
pIC50

> <# Confs.>
25

> <canonical_smiles>
O=S(C(C=C1)=CC=C1NC2=NC=C(N=O)C(OCC3CCCCC3)=N2)(N(CC)CC)=O

> <standard_relation>
=

> <predicted_activity_value>
7.288192770958809

> <actual_activity_value>
7.0655015487564325

> <Publication ID>
nan

> <standard_units>
nM

> hash
11374675463381991714

$$$$
23_
XXILIB    08252103453D 0   0.00000     0.00000

 31 33  0     1  0            999 V2000
    5.3922    0.0540    4.4402 S   0  0  2  0  0  6           0  0  0
    5.0729   -1.0631    5.3095 O   0  0  0  0  0  2           0  0  0
    6.7082    0.1576    3.8380 O   0  0  0  0  0  2           0  0  0
   -4.5673   -0.5792   -1.1312 O   0  0  0  0  0  2           0  0  0
   -2.7434    0.0289    2.3192 O   0  0  0  0  0  2           0  0  0
   -0.6711   -0.0000    1.1778 N   0  0  0  0  0  3           0  0  0
   -0.6205    0.0032   -1.2019 N   0  0  0  0  0  3           0  0  0
    5.0139    1.5361    5.2512 N   0  0  1  0  0  3           0  0  0
   -4.1153   -0.0009   -0.1358 N   0  0  0  0  0  3           0  0  0
    1.4050   -0.0000    0.0000 N   0  0  0  0  0  3           0  0  0
    4.2032    0.0516    3.1349 C   0  0  0  0  0  4           0  0  0
   -2.0261   -0.0010    1.1345 C   0  0  0  0  0  4           0  0  0
    0.0000    0.0000    0.0000 C   0  0  0  0  0  4           0  0  0
   -1.9717   -0.0013   -1.1987 C   0  0  0  0  0  4           0  0  0
   -2.7422   -0.0153   -0.0527 C   0  0  0  0  0  4           0  0  0
    2.3186   -0.0000    1.0572 C   0  0  0  0  0  4           0  0  0
    4.5143    0.6380    1.9115 C   0  0  0  0  0  4           0  0  0
    2.9732   -0.5707    3.3349 C   0  0  0  0  0  4           0  0  0
    3.5707    0.6131    0.8820 C   0  0  0  0  0  4           0  0  0
    2.0364   -0.5921    2.2984 C   0  0  0  0  0  4           0  0  0
   -1.9323    0.0585    3.4935 C   0  0  0  0  0  4           0  0  0
    5.1244    2.7815    4.4488 C   0  0  0  0  0  4           0  0  0
    3.7704    1.5019    6.0833 C   0  0  0  0  0  4           0  0  0
   -2.8427    0.0895    4.7186 C   0  0  1  0  0  4           0  0  0
   -3.7531    1.3293    4.7130 C   0  0  0  0  0  4           0  0  0
   -3.6775   -1.1960    4.7980 C   0  0  0  0  0  4           0  0  0
   -4.7042    1.3374    5.9084 C   0  0  0  0  0  4           0  0  0
   -4.6255   -1.1828    5.9947 C   0  0  0  0  0  4           0  0  0
   -5.5205    0.0518    5.9905 C   0  0  0  0  0  4           0  0  0
    5.4972    3.9521    5.3412 C   0  0  0  0  0  4           0  0  0
    4.0971    1.0693    7.5017 C   0  0  0  0  0  4           0  0  0
  1  2  2  0     0  0
  1  3  2  0     0  0
  1  8  1  0     0  0
  1 11  1  0     0  0
  4  9  2  0     0  0
  5 12  1  0     0  0
  5 21  1  0     0  0
  6 12  2  0     0  0
  6 13  1  0     0  0
  7 13  2  0     0  0
  7 14  1  0     0  0
  8 22  1  0     0  0
  8 23  1  0     0  0
  9 15  1  0     0  0
 10 13  1  0     0  0
 10 16  1  0     0  0
 11 17  1  0     0  0
 11 18  2  0     0  0
 12 15  1  0     0  0
 14 15  2  0     0  0
 16 19  1  0     0  0
 16 20  2  0     0  0
 17 19  2  0     0  0
 18 20  1  0     0  0
 21 24  1  0     0  0
 22 30  1  0     0  0
 23 31  1  0     0  0
 24 25  1  0     0  0
 24 26  1  0     0  0
 25 27  1  0     0  0
 26 28  1  0     0  0
 27 29  1  0     0  0
 28 29  1  0     0  0
M  END
> <Compound >
23

> <standard_type>
pIC50

> <# Confs.>
25

> <canonical_smiles>
O=S(C(C=C1)=CC=C1NC2=NC=C(N=O)C(OCC3CCCCC3)=N2)(N(CC)CC)=O

> <standard_relation>
=

> <predicted_activity_value>
7.288192770958809

> <actual_activity_value>
7.0655015487564325

> <Publication ID>
nan

> <standard_units>
nM

> hash
11374675463381991714

$$$$
23_
XXILIB    08252103453D 0   0.00000     0.00000

 31 33  0     1  0            999 V2000
    5.3845   -0.0716    4.4469 S   0  0  2  0  0  6           0  0  0
    4.6396    0.0714    5.6838 O   0  0  0  0  0  2           0  0  0
    6.2427   -1.2231    4.2402 O   0  0  0  0  0  2           0  0  0
   -4.5673   -0.5792   -1.1312 O   0  0  0  0  0  2           0  0  0
   -2.7434    0.0289    2.3192 O   0  0  0  0  0  2           0  0  0
   -0.6711   -0.0000    1.1778 N   0  0  0  0  0  3           0  0  0
   -0.6205    0.0032   -1.2019 N   0  0  0  0  0  3           0  0  0
    6.2863    1.3766    4.1517 N   0  0  1  0  0  3           0  0  0
   -4.1153   -0.0009   -0.1358 N   0  0  0  0  0  3           0  0  0
    1.4050    0.0000    0.0000 N   0  0  0  0  0  3           0  0  0
    4.2115   -0.0327    3.1277 C   0  0  0  0  0  4           0  0  0
   -2.0261   -0.0010    1.1345 C   0  0  0  0  0  4           0  0  0
    0.0000    0.0000    0.0000 C   0  0  0  0  0  4           0  0  0
   -1.9717   -0.0013   -1.1987 C   0  0  0  0  0  4           0  0  0
   -2.7422   -0.0153   -0.0527 C   0  0  0  0  0  4           0  0  0
    2.3186    0.0000    1.0572 C   0  0  0  0  0  4           0  0  0
    4.5151   -0.6361    1.9108 C   0  0  0  0  0  4           0  0  0
    2.9752    0.5754    3.3331 C   0  0  0  0  0  4           0  0  0
    3.5707   -0.6131    0.8820 C   0  0  0  0  0  4           0  0  0
    2.0362    0.5916    2.2986 C   0  0  0  0  0  4           0  0  0
   -1.9323    0.0585    3.4935 C   0  0  0  0  0  4           0  0  0
    6.9828    1.4725    2.8430 C   0  0  0  0  0  4           0  0  0
    5.5822    2.6455    4.5178 C   0  0  0  0  0  4           0  0  0
   -2.8427    0.0895    4.7186 C   0  0  1  0  0  4           0  0  0
   -2.0298    0.1224    6.0240 C   0  0  0  0  0  4           0  0  0
   -3.7990    1.2877    4.6449 C   0  0  0  0  0  4           0  0  0
   -2.9352    0.2084    7.2515 C   0  0  0  0  0  4           0  0  0
   -4.7018    1.3683    5.8735 C   0  0  0  0  0  4           0  0  0
   -3.8930    1.3921    7.1660 C   0  0  0  0  0  4           0  0  0
    8.2367    2.3188    2.9740 C   0  0  0  0  0  4           0  0  0
    5.8828    3.0182    5.9588 C   0  0  0  0  0  4           0  0  0
  1  2  2  0     0  0
  1  3  2  0     0  0
  1  8  1  0     0  0
  1 11  1  0     0  0
  4  9  2  0     0  0
  5 12  1  0     0  0
  5 21  1  0     0  0
  6 12  2  0     0  0
  6 13  1  0     0  0
  7 13  2  0     0  0
  7 14  1  0     0  0
  8 22  1  0     0  0
  8 23  1  0     0  0
  9 15  1  0     0  0
 10 13  1  0     0  0
 10 16  1  0     0  0
 11 17  1  0     0  0
 11 18  2  0     0  0
 12 15  1  0     0  0
 14 15  2  0     0  0
 16 19  1  0     0  0
 16 20  2  0     0  0
 17 19  2  0     0  0
 18 20  1  0     0  0
 21 24  1  0     0  0
 22 30  1  0     0  0
 23 31  1  0     0  0
 24 25  1  0     0  0
 24 26  1  0     0  0
 25 27  1  0     0  0
 26 28  1  0     0  0
 27 29  1  0     0  0
 28 29  1  0     0  0
M  END
> <Compound >
23

> <standard_type>
pIC50

> <# Confs.>
25

> <canonical_smiles>
O=S(C(C=C1)=CC=C1NC2=NC=C(N=O)C(OCC3CCCCC3)=N2)(N(CC)CC)=O

> <standard_relation>
=

> <predicted_activity_value>
7.288192770958809

> <actual_activity_value>
7.0655015487564325

> <Publication ID>
nan

> <standard_units>
nM

> hash
11374675463381991714

$$$$
23_
XXILIB    08252103453D 0   0.00000     0.00000

 31 33  0     1  0            999 V2000
    5.3922    0.0540    4.4402 S   0  0  2  0  0  6           0  0  0
    6.6177    0.6118    3.8994 O   0  0  0  0  0  2           0  0  0
    4.7680    0.6546    5.6043 O   0  0  0  0  0  2           0  0  0
   -4.5673   -0.5792   -1.1312 O   0  0  0  0  0  2           0  0  0
   -2.7434    0.0289    2.3192 O   0  0  0  0  0  2           0  0  0
   -0.6711   -0.0000    1.1778 N   0  0  0  0  0  3           0  0  0
   -0.6205    0.0032   -1.2019 N   0  0  0  0  0  3           0  0  0
    5.6083   -1.6416    4.7155 N   0  0  1  0  0  3           0  0  0
   -4.1153   -0.0009   -0.1358 N   0  0  0  0  0  3           0  0  0
    1.4050    0.0000    0.0000 N   0  0  0  0  0  3           0  0  0
    4.2032    0.0516    3.1349 C   0  0  0  0  0  4           0  0  0
   -2.0261   -0.0010    1.1345 C   0  0  0  0  0  4           0  0  0
    0.0000    0.0000    0.0000 C   0  0  0  0  0  4           0  0  0
   -1.9717   -0.0013   -1.1987 C   0  0  0  0  0  4           0  0  0
   -2.7422   -0.0153   -0.0527 C   0  0  0  0  0  4           0  0  0
    2.3186    0.0000    1.0572 C   0  0  0  0  0  4           0  0  0
    4.5143    0.6380    1.9115 C   0  0  0  0  0  4           0  0  0
    2.9732   -0.5707    3.3349 C   0  0  0  0  0  4           0  0  0
    3.5707    0.6131    0.8820 C   0  0  0  0  0  4           0  0  0
    2.0364   -0.5921    2.2984 C   0  0  0  0  0  4           0  0  0
   -1.9323    0.0585    3.4935 C   0  0  0  0  0  4           0  0  0
    6.1021   -2.4452    3.5677 C   0  0  0  0  0  4           0  0  0
    6.2993   -1.9912    5.9962 C   0  0  0  0  0  4           0  0  0
   -2.8427    0.0895    4.7186 C   0  0  1  0  0  4           0  0  0
   -3.7533   -1.1489    4.7755 C   0  0  0  0  0  4           0  0  0
   -2.0095    0.2094    6.0020 C   0  0  0  0  0  4           0  0  0
   -4.6280   -1.1501    6.0280 C   0  0  0  0  0  4           0  0  0
   -2.8886    0.2084    7.2503 C   0  0  0  0  0  4           0  0  0
   -3.7959   -1.0162    7.2990 C   0  0  0  0  0  4           0  0  0
    5.5726   -3.8658    3.6522 C   0  0  0  0  0  4           0  0  0
    5.2843   -2.1667    7.1118 C   0  0  0  0  0  4           0  0  0
  1  2  2  0     0  0
  1  3  2  0     0  0
  1  8  1  0     0  0
  1 11  1  0     0  0
  4  9  2  0     0  0
  5 12  1  0     0  0
  5 21  1  0     0  0
  6 12  2  0     0  0
  6 13  1  0     0  0
  7 13  2  0     0  0
  7 14  1  0     0  0
  8 22  1  0     0  0
  8 23  1  0     0  0
  9 15  1  0     0  0
 10 13  1  0     0  0
 10 16  1  0     0  0
 11 17  1  0     0  0
 11 18  2  0     0  0
 12 15  1  0     0  0
 14 15  2  0     0  0
 16 19  1  0     0  0
 16 20  2  0     0  0
 17 19  2  0     0  0
 18 20  1  0     0  0
 21 24  1  0     0  0
 22 30  1  0     0  0
 23 31  1  0     0  0
 24 25  1  0     0  0
 24 26  1  0     0  0
 25 27  1  0     0  0
 26 28  1  0     0  0
 27 29  1  0     0  0
 28 29  1  0     0  0
M  END
> <Compound >
23

> <standard_type>
pIC50

> <# Confs.>
25

> <canonical_smiles>
O=S(C(C=C1)=CC=C1NC2=NC=C(N=O)C(OCC3CCCCC3)=N2)(N(CC)CC)=O

> <standard_relation>
=

> <predicted_activity_value>
7.288192770958809

> <actual_activity_value>
7.0655015487564325

> <Publication ID>
nan

> <standard_units>
nM

> hash
11374675463381991714

$$$$
23_
XXILIB    08252103453D 0   0.00000     0.00000

 31 33  0     1  0            999 V2000
    5.3845   -0.0716    4.4469 S   0  0  2  0  0  6           0  0  0
    6.4909   -0.9020    4.0089 O   0  0  0  0  0  2           0  0  0
    5.6205    1.2969    4.8676 O   0  0  0  0  0  2           0  0  0
   -4.5673   -0.5792   -1.1312 O   0  0  0  0  0  2           0  0  0
   -2.7434    0.0289    2.3192 O   0  0  0  0  0  2           0  0  0
   -0.6711   -0.0000    1.1778 N   0  0  0  0  0  3           0  0  0
   -0.6205    0.0032   -1.2019 N   0  0  0  0  0  3           0  0  0
    4.4958   -0.9051    5.6769 N   0  0  1  0  0  3           0  0  0
   -4.1153   -0.0009   -0.1358 N   0  0  0  0  0  3           0  0  0
    1.4050    0.0000   -0.0000 N   0  0  0  0  0  3           0  0  0
    4.2115   -0.0327    3.1277 C   0  0  0  0  0  4           0  0  0
   -2.0261   -0.0010    1.1345 C   0  0  0  0  0  4           0  0  0
    0.0000    0.0000    0.0000 C   0  0  0  0  0  4           0  0  0
   -1.9717   -0.0013   -1.1987 C   0  0  0  0  0  4           0  0  0
   -2.7422   -0.0153   -0.0527 C   0  0  0  0  0  4           0  0  0
    2.3186    0.0000    1.0572 C   0  0  0  0  0  4           0  0  0
    4.5151   -0.6361    1.9108 C   0  0  0  0  0  4           0  0  0
    2.9752    0.5754    3.3331 C   0  0  0  0  0  4           0  0  0
    3.5707   -0.6131    0.8820 C   0  0  0  0  0  4           0  0  0
    2.0362    0.5916    2.2986 C   0  0  0  0  0  4           0  0  0
   -1.9323    0.0585    3.4935 C   0  0  0  0  0  4           0  0  0
    4.0378   -2.2804    5.3515 C   0  0  0  0  0  4           0  0  0
    5.0767   -0.8075    7.0527 C   0  0  0  0  0  4           0  0  0
   -2.8427    0.0895    4.7186 C   0  0  1  0  0  4           0  0  0
   -2.0298    0.1224    6.0240 C   0  0  0  0  0  4           0  0  0
   -3.7990    1.2877    4.6449 C   0  0  0  0  0  4           0  0  0
   -2.9352    0.2084    7.2515 C   0  0  0  0  0  4           0  0  0
   -4.7018    1.3683    5.8735 C   0  0  0  0  0  4           0  0  0
   -3.8930    1.3921    7.1660 C   0  0  0  0  0  4           0  0  0
    2.7498   -2.5958    6.0914 C   0  0  0  0  0  4           0  0  0
    4.5132    0.4015    7.7782 C   0  0  0  0  0  4           0  0  0
  1  2  2  0     0  0
  1  3  2  0     0  0
  1  8  1  0     0  0
  1 11  1  0     0  0
  4  9  2  0     0  0
  5 12  1  0     0  0
  5 21  1  0     0  0
  6 12  2  0     0  0
  6 13  1  0     0  0
  7 13  2  0     0  0
  7 14  1  0     0  0
  8 22  1  0     0  0
  8 23  1  0     0  0
  9 15  1  0     0  0
 10 13  1  0     0  0
 10 16  1  0     0  0
 11 17  1  0     0  0
 11 18  2  0     0  0
 12 15  1  0     0  0
 14 15  2  0     0  0
 16 19  1  0     0  0
 16 20  2  0     0  0
 17 19  2  0     0  0
 18 20  1  0     0  0
 21 24  1  0     0  0
 22 30  1  0     0  0
 23 31  1  0     0  0
 24 25  1  0     0  0
 24 26  1  0     0  0
 25 27  1  0     0  0
 26 28  1  0     0  0
 27 29  1  0     0  0
 28 29  1  0     0  0
M  END
> <Compound >
23

> <standard_type>
pIC50

> <# Confs.>
25

> <canonical_smiles>
O=S(C(C=C1)=CC=C1NC2=NC=C(N=O)C(OCC3CCCCC3)=N2)(N(CC)CC)=O

> <standard_relation>
=

> <predicted_activity_value>
7.288192770958809

> <actual_activity_value>
7.0655015487564325

> <Publication ID>
nan

> <standard_units>
nM

> hash
11374675463381991714

$$$$
23_
XXILIB    08252103453D 0   0.00000     0.00000

 31 33  0     1  0            999 V2000
    5.3845   -0.0716    4.4469 S   0  0  2  0  0  6           0  0  0
    6.6956   -0.2332    3.8465 O   0  0  0  0  0  2           0  0  0
    5.1124    1.0606    5.3125 O   0  0  0  0  0  2           0  0  0
   -4.5673   -0.5792   -1.1312 O   0  0  0  0  0  2           0  0  0
   -2.7434    0.0289    2.3192 O   0  0  0  0  0  2           0  0  0
   -0.6711   -0.0000    1.1778 N   0  0  0  0  0  3           0  0  0
   -0.6205    0.0032   -1.2019 N   0  0  0  0  0  3           0  0  0
    4.9435   -1.5350    5.2601 N   0  0  1  0  0  3           0  0  0
   -4.1153   -0.0009   -0.1358 N   0  0  0  0  0  3           0  0  0
    1.4050    0.0000    0.0000 N   0  0  0  0  0  3           0  0  0
    4.2115   -0.0327    3.1277 C   0  0  0  0  0  4           0  0  0
   -2.0261   -0.0010    1.1345 C   0  0  0  0  0  4           0  0  0
    0.0000    0.0000    0.0000 C   0  0  0  0  0  4           0  0  0
   -1.9717   -0.0013   -1.1987 C   0  0  0  0  0  4           0  0  0
   -2.7422   -0.0153   -0.0527 C   0  0  0  0  0  4           0  0  0
    2.3186    0.0000    1.0572 C   0  0  0  0  0  4           0  0  0
    4.5151   -0.6361    1.9108 C   0  0  0  0  0  4           0  0  0
    2.9752    0.5754    3.3331 C   0  0  0  0  0  4           0  0  0
    3.5707   -0.6131    0.8820 C   0  0  0  0  0  4           0  0  0
    2.0362    0.5916    2.2986 C   0  0  0  0  0  4           0  0  0
   -1.9323    0.0585    3.4935 C   0  0  0  0  0  4           0  0  0
    3.5599   -1.6081    5.7962 C   0  0  0  0  0  4           0  0  0
    5.3524   -2.7941    4.5621 C   0  0  0  0  0  4           0  0  0
   -2.8427    0.0895    4.7186 C   0  0  1  0  0  4           0  0  0
   -3.7531    1.3293    4.7130 C   0  0  0  0  0  4           0  0  0
   -3.6775   -1.1960    4.7980 C   0  0  0  0  0  4           0  0  0
   -4.7042    1.3374    5.9084 C   0  0  0  0  0  4           0  0  0
   -4.6255   -1.1828    5.9947 C   0  0  0  0  0  4           0  0  0
   -5.5205    0.0518    5.9905 C   0  0  0  0  0  4           0  0  0
    3.5183   -2.4946    7.0283 C   0  0  0  0  0  4           0  0  0
    6.7367   -3.2225    5.0158 C   0  0  0  0  0  4           0  0  0
  1  2  2  0     0  0
  1  3  2  0     0  0
  1  8  1  0     0  0
  1 11  1  0     0  0
  4  9  2  0     0  0
  5 12  1  0     0  0
  5 21  1  0     0  0
  6 12  2  0     0  0
  6 13  1  0     0  0
  7 13  2  0     0  0
  7 14  1  0     0  0
  8 22  1  0     0  0
  8 23  1  0     0  0
  9 15  1  0     0  0
 10 13  1  0     0  0
 10 16  1  0     0  0
 11 17  1  0     0  0
 11 18  2  0     0  0
 12 15  1  0     0  0
 14 15  2  0     0  0
 16 19  1  0     0  0
 16 20  2  0     0  0
 17 19  2  0     0  0
 18 20  1  0     0  0
 21 24  1  0     0  0
 22 30  1  0     0  0
 23 31  1  0     0  0
 24 25  1  0     0  0
 24 26  1  0     0  0
 25 27  1  0     0  0
 26 28  1  0     0  0
 27 29  1  0     0  0
 28 29  1  0     0  0
M  END
> <Compound >
23

> <standard_type>
pIC50

> <# Confs.>
25

> <canonical_smiles>
O=S(C(C=C1)=CC=C1NC2=NC=C(N=O)C(OCC3CCCCC3)=N2)(N(CC)CC)=O

> <standard_relation>
=

> <predicted_activity_value>
7.288192770958809

> <actual_activity_value>
7.0655015487564325

> <Publication ID>
nan

> <standard_units>
nM

> hash
11374675463381991714

$$$$
23_
XXILIB    08252103453D 0   0.00000     0.00000

 31 33  0     1  0            999 V2000
    5.3922    0.0540    4.4402 S   0  0  2  0  0  6           0  0  0
    6.2854    1.1722    4.2010 O   0  0  0  0  0  2           0  0  0
    4.6702   -0.0484    5.6946 O   0  0  0  0  0  2           0  0  0
   -4.5673   -0.5792   -1.1312 O   0  0  0  0  0  2           0  0  0
   -2.7434    0.0289    2.3192 O   0  0  0  0  0  2           0  0  0
   -0.6711   -0.0000    1.1778 N   0  0  0  0  0  3           0  0  0
   -0.6205    0.0032   -1.2019 N   0  0  0  0  0  3           0  0  0
    6.2376   -1.4272    4.1420 N   0  0  1  0  0  3           0  0  0
   -4.1153   -0.0009   -0.1358 N   0  0  0  0  0  3           0  0  0
    1.4050   -0.0000    0.0000 N   0  0  0  0  0  3           0  0  0
    4.2032    0.0516    3.1349 C   0  0  0  0  0  4           0  0  0
   -2.0261   -0.0010    1.1345 C   0  0  0  0  0  4           0  0  0
    0.0000    0.0000    0.0000 C   0  0  0  0  0  4           0  0  0
   -1.9717   -0.0013   -1.1987 C   0  0  0  0  0  4           0  0  0
   -2.7422   -0.0153   -0.0527 C   0  0  0  0  0  4           0  0  0
    2.3186   -0.0000    1.0572 C   0  0  0  0  0  4           0  0  0
    4.5143    0.6380    1.9115 C   0  0  0  0  0  4           0  0  0
    2.9732   -0.5707    3.3349 C   0  0  0  0  0  4           0  0  0
    3.5707    0.6131    0.8820 C   0  0  0  0  0  4           0  0  0
    2.0364   -0.5921    2.2984 C   0  0  0  0  0  4           0  0  0
   -1.9323    0.0585    3.4935 C   0  0  0  0  0  4           0  0  0
    5.4305   -2.6740    4.1798 C   0  0  0  0  0  4           0  0  0
    7.1818   -1.3936    2.9813 C   0  0  0  0  0  4           0  0  0
   -2.8427    0.0895    4.7186 C   0  0  1  0  0  4           0  0  0
   -2.0298    0.1224    6.0240 C   0  0  0  0  0  4           0  0  0
   -3.7990    1.2877    4.6449 C   0  0  0  0  0  4           0  0  0
   -2.9352    0.2084    7.2515 C   0  0  0  0  0  4           0  0  0
   -4.7018    1.3683    5.8735 C   0  0  0  0  0  4           0  0  0
   -3.8930    1.3921    7.1660 C   0  0  0  0  0  4           0  0  0
    6.2865   -3.8422    4.6363 C   0  0  0  0  0  4           0  0  0
    8.5628   -0.9576    3.4378 C   0  0  0  0  0  4           0  0  0
  1  2  2  0     0  0
  1  3  2  0     0  0
  1  8  1  0     0  0
  1 11  1  0     0  0
  4  9  2  0     0  0
  5 12  1  0     0  0
  5 21  1  0     0  0
  6 12  2  0     0  0
  6 13  1  0     0  0
  7 13  2  0     0  0
  7 14  1  0     0  0
  8 22  1  0     0  0
  8 23  1  0     0  0
  9 15  1  0     0  0
 10 13  1  0     0  0
 10 16  1  0     0  0
 11 17  1  0     0  0
 11 18  2  0     0  0
 12 15  1  0     0  0
 14 15  2  0     0  0
 16 19  1  0     0  0
 16 20  2  0     0  0
 17 19  2  0     0  0
 18 20  1  0     0  0
 21 24  1  0     0  0
 22 30  1  0     0  0
 23 31  1  0     0  0
 24 25  1  0     0  0
 24 26  1  0     0  0
 25 27  1  0     0  0
 26 28  1  0     0  0
 27 29  1  0     0  0
 28 29  1  0     0  0
M  END
> <Compound >
23

> <standard_type>
pIC50

> <# Confs.>
25

> <canonical_smiles>
O=S(C(C=C1)=CC=C1NC2=NC=C(N=O)C(OCC3CCCCC3)=N2)(N(CC)CC)=O

> <standard_relation>
=

> <predicted_activity_value>
7.288192770958809

> <actual_activity_value>
7.0655015487564325

> <Publication ID>
nan

> <standard_units>
nM

> hash
11374675463381991714

$$$$
23_
XXILIB    08252103453D 0   0.00000     0.00000

 31 33  0     1  0            999 V2000
    5.3845   -0.0716    4.4469 S   0  0  2  0  0  6           0  0  0
    4.6396    0.0714    5.6838 O   0  0  0  0  0  2           0  0  0
    6.2427   -1.2231    4.2402 O   0  0  0  0  0  2           0  0  0
   -4.5673   -0.5792   -1.1312 O   0  0  0  0  0  2           0  0  0
   -2.7434    0.0289    2.3192 O   0  0  0  0  0  2           0  0  0
   -0.6711   -0.0000    1.1778 N   0  0  0  0  0  3           0  0  0
   -0.6205    0.0032   -1.2019 N   0  0  0  0  0  3           0  0  0
    6.2863    1.3766    4.1517 N   0  0  1  0  0  3           0  0  0
   -4.1153   -0.0009   -0.1358 N   0  0  0  0  0  3           0  0  0
    1.4050    0.0000    0.0000 N   0  0  0  0  0  3           0  0  0
    4.2115   -0.0327    3.1277 C   0  0  0  0  0  4           0  0  0
   -2.0261   -0.0010    1.1345 C   0  0  0  0  0  4           0  0  0
    0.0000    0.0000    0.0000 C   0  0  0  0  0  4           0  0  0
   -1.9717   -0.0013   -1.1987 C   0  0  0  0  0  4           0  0  0
   -2.7422   -0.0153   -0.0527 C   0  0  0  0  0  4           0  0  0
    2.3186    0.0000    1.0572 C   0  0  0  0  0  4           0  0  0
    4.5151   -0.6361    1.9108 C   0  0  0  0  0  4           0  0  0
    2.9752    0.5754    3.3331 C   0  0  0  0  0  4           0  0  0
    3.5707   -0.6131    0.8820 C   0  0  0  0  0  4           0  0  0
    2.0362    0.5916    2.2986 C   0  0  0  0  0  4           0  0  0
   -1.9323    0.0585    3.4935 C   0  0  0  0  0  4           0  0  0
    6.9828    1.4725    2.8430 C   0  0  0  0  0  4           0  0  0
    5.5822    2.6455    4.5178 C   0  0  0  0  0  4           0  0  0
   -2.8427    0.0895    4.7186 C   0  0  1  0  0  4           0  0  0
   -3.7531    1.3293    4.7130 C   0  0  0  0  0  4           0  0  0
   -3.6775   -1.1960    4.7980 C   0  0  0  0  0  4           0  0  0
   -4.7042    1.3374    5.9084 C   0  0  0  0  0  4           0  0  0
   -4.6255   -1.1828    5.9947 C   0  0  0  0  0  4           0  0  0
   -5.5205    0.0518    5.9905 C   0  0  0  0  0  4           0  0  0
    8.2367    2.3188    2.9740 C   0  0  0  0  0  4           0  0  0
    5.8828    3.0182    5.9588 C   0  0  0  0  0  4           0  0  0
  1  2  2  0     0  0
  1  3  2  0     0  0
  1  8  1  0     0  0
  1 11  1  0     0  0
  4  9  2  0     0  0
  5 12  1  0     0  0
  5 21  1  0     0  0
  6 12  2  0     0  0
  6 13  1  0     0  0
  7 13  2  0     0  0
  7 14  1  0     0  0
  8 22  1  0     0  0
  8 23  1  0     0  0
  9 15  1  0     0  0
 10 13  1  0     0  0
 10 16  1  0     0  0
 11 17  1  0     0  0
 11 18  2  0     0  0
 12 15  1  0     0  0
 14 15  2  0     0  0
 16 19  1  0     0  0
 16 20  2  0     0  0
 17 19  2  0     0  0
 18 20  1  0     0  0
 21 24  1  0     0  0
 22 30  1  0     0  0
 23 31  1  0     0  0
 24 25  1  0     0  0
 24 26  1  0     0  0
 25 27  1  0     0  0
 26 28  1  0     0  0
 27 29  1  0     0  0
 28 29  1  0     0  0
M  END
> <Compound >
23

> <standard_type>
pIC50

> <# Confs.>
25

> <canonical_smiles>
O=S(C(C=C1)=CC=C1NC2=NC=C(N=O)C(OCC3CCCCC3)=N2)(N(CC)CC)=O

> <standard_relation>
=

> <predicted_activity_value>
7.288192770958809

> <actual_activity_value>
7.0655015487564325

> <Publication ID>
nan

> <standard_units>
nM

> hash
11374675463381991714

$$$$
23_
XXILIB    08252103453D 0   0.00000     0.00000

 31 33  0     1  0            999 V2000
    5.4011   -0.0101    4.4326 S   0  0  2  0  0  6           0  0  0
    4.7412   -0.5726    5.5960 O   0  0  0  0  0  2           0  0  0
    6.6154   -0.6152    3.9181 O   0  0  0  0  0  2           0  0  0
   -4.5673   -0.5792   -1.1312 O   0  0  0  0  0  2           0  0  0
   -2.7434    0.0289    2.3192 O   0  0  0  0  0  2           0  0  0
   -0.6711   -0.0000    1.1778 N   0  0  0  0  0  3           0  0  0
   -0.6205    0.0032   -1.2019 N   0  0  0  0  0  3           0  0  0
    5.6662    1.6817    4.6875 N   0  0  1  0  0  3           0  0  0
   -4.1153   -0.0009   -0.1358 N   0  0  0  0  0  3           0  0  0
    1.4050    0.0000    0.0000 N   0  0  0  0  0  3           0  0  0
    4.2159    0.0109    3.1239 C   0  0  0  0  0  4           0  0  0
   -2.0261   -0.0010    1.1345 C   0  0  0  0  0  4           0  0  0
    0.0000    0.0000    0.0000 C   0  0  0  0  0  4           0  0  0
   -1.9717   -0.0013   -1.1987 C   0  0  0  0  0  4           0  0  0
   -2.7422   -0.0153   -0.0527 C   0  0  0  0  0  4           0  0  0
    2.3186    0.0000    1.0572 C   0  0  0  0  0  4           0  0  0
    4.6439    0.0011    1.7995 C   0  0  0  0  0  4           0  0  0
    2.8580    0.0027    3.4344 C   0  0  0  0  0  4           0  0  0
    3.6950    0.0000    0.7746 C   0  0  0  0  0  4           0  0  0
    1.9163   -0.0003    2.4022 C   0  0  0  0  0  4           0  0  0
   -1.9323    0.0585    3.4935 C   0  0  0  0  0  4           0  0  0
    6.1863    2.4560    3.5312 C   0  0  0  0  0  4           0  0  0
    4.5603    2.3945    5.4007 C   0  0  0  0  0  4           0  0  0
   -2.8427    0.0895    4.7186 C   0  0  1  0  0  4           0  0  0
   -3.7533   -1.1489    4.7755 C   0  0  0  0  0  4           0  0  0
   -2.0095    0.2094    6.0020 C   0  0  0  0  0  4           0  0  0
   -4.6280   -1.1501    6.0280 C   0  0  0  0  0  4           0  0  0
   -2.8886    0.2084    7.2503 C   0  0  0  0  0  4           0  0  0
   -3.7959   -1.0162    7.2990 C   0  0  0  0  0  4           0  0  0
    7.0325    3.6205    4.0145 C   0  0  0  0  0  4           0  0  0
    4.7924    2.3599    6.9010 C   0  0  0  0  0  4           0  0  0
  1  2  2  0     0  0
  1  3  2  0     0  0
  1  8  1  0     0  0
  1 11  1  0     0  0
  4  9  2  0     0  0
  5 12  1  0     0  0
  5 21  1  0     0  0
  6 12  2  0     0  0
  6 13  1  0     0  0
  7 13  2  0     0  0
  7 14  1  0     0  0
  8 22  1  0     0  0
  8 23  1  0     0  0
  9 15  1  0     0  0
 10 13  1  0     0  0
 10 16  1  0     0  0
 11 17  1  0     0  0
 11 18  2  0     0  0
 12 15  1  0     0  0
 14 15  2  0     0  0
 16 19  1  0     0  0
 16 20  2  0     0  0
 17 19  2  0     0  0
 18 20  1  0     0  0
 21 24  1  0     0  0
 22 30  1  0     0  0
 23 31  1  0     0  0
 24 25  1  0     0  0
 24 26  1  0     0  0
 25 27  1  0     0  0
 26 28  1  0     0  0
 27 29  1  0     0  0
 28 29  1  0     0  0
M  END
> <Compound >
23

> <standard_type>
pIC50

> <# Confs.>
25

> <canonical_smiles>
O=S(C(C=C1)=CC=C1NC2=NC=C(N=O)C(OCC3CCCCC3)=N2)(N(CC)CC)=O

> <standard_relation>
=

> <predicted_activity_value>
7.288192770958809

> <actual_activity_value>
7.0655015487564325

> <Publication ID>
nan

> <standard_units>
nM

> hash
11374675463381991714

$$$$
23_
XXILIB    08252103453D 0   0.00000     0.00000

 31 33  0     1  0            999 V2000
    5.3922    0.0540    4.4402 S   0  0  2  0  0  6           0  0  0
    6.2854    1.1722    4.2010 O   0  0  0  0  0  2           0  0  0
    4.6702   -0.0484    5.6946 O   0  0  0  0  0  2           0  0  0
   -4.5673   -0.5792   -1.1312 O   0  0  0  0  0  2           0  0  0
   -2.7434    0.0289    2.3192 O   0  0  0  0  0  2           0  0  0
   -0.6711   -0.0000    1.1778 N   0  0  0  0  0  3           0  0  0
   -0.6205    0.0032   -1.2019 N   0  0  0  0  0  3           0  0  0
    6.2376   -1.4272    4.1420 N   0  0  1  0  0  3           0  0  0
   -4.1153   -0.0009   -0.1358 N   0  0  0  0  0  3           0  0  0
    1.4050   -0.0000    0.0000 N   0  0  0  0  0  3           0  0  0
    4.2032    0.0516    3.1349 C   0  0  0  0  0  4           0  0  0
   -2.0261   -0.0010    1.1345 C   0  0  0  0  0  4           0  0  0
    0.0000    0.0000    0.0000 C   0  0  0  0  0  4           0  0  0
   -1.9717   -0.0013   -1.1987 C   0  0  0  0  0  4           0  0  0
   -2.7422   -0.0153   -0.0527 C   0  0  0  0  0  4           0  0  0
    2.3186   -0.0000    1.0572 C   0  0  0  0  0  4           0  0  0
    4.5143    0.6380    1.9115 C   0  0  0  0  0  4           0  0  0
    2.9732   -0.5707    3.3349 C   0  0  0  0  0  4           0  0  0
    3.5707    0.6131    0.8820 C   0  0  0  0  0  4           0  0  0
    2.0364   -0.5921    2.2984 C   0  0  0  0  0  4           0  0  0
   -1.9323    0.0585    3.4935 C   0  0  0  0  0  4           0  0  0
    5.4305   -2.6740    4.1798 C   0  0  0  0  0  4           0  0  0
    7.1818   -1.3936    2.9813 C   0  0  0  0  0  4           0  0  0
   -2.8427    0.0895    4.7186 C   0  0  1  0  0  4           0  0  0
   -3.7531    1.3293    4.7130 C   0  0  0  0  0  4           0  0  0
   -3.6775   -1.1960    4.7980 C   0  0  0  0  0  4           0  0  0
   -4.7042    1.3374    5.9084 C   0  0  0  0  0  4           0  0  0
   -4.6255   -1.1828    5.9947 C   0  0  0  0  0  4           0  0  0
   -5.5205    0.0518    5.9905 C   0  0  0  0  0  4           0  0  0
    6.2865   -3.8422    4.6363 C   0  0  0  0  0  4           0  0  0
    8.5628   -0.9576    3.4378 C   0  0  0  0  0  4           0  0  0
  1  2  2  0     0  0
  1  3  2  0     0  0
  1  8  1  0     0  0
  1 11  1  0     0  0
  4  9  2  0     0  0
  5 12  1  0     0  0
  5 21  1  0     0  0
  6 12  2  0     0  0
  6 13  1  0     0  0
  7 13  2  0     0  0
  7 14  1  0     0  0
  8 22  1  0     0  0
  8 23  1  0     0  0
  9 15  1  0     0  0
 10 13  1  0     0  0
 10 16  1  0     0  0
 11 17  1  0     0  0
 11 18  2  0     0  0
 12 15  1  0     0  0
 14 15  2  0     0  0
 16 19  1  0     0  0
 16 20  2  0     0  0
 17 19  2  0     0  0
 18 20  1  0     0  0
 21 24  1  0     0  0
 22 30  1  0     0  0
 23 31  1  0     0  0
 24 25  1  0     0  0
 24 26  1  0     0  0
 25 27  1  0     0  0
 26 28  1  0     0  0
 27 29  1  0     0  0
 28 29  1  0     0  0
M  END
> <Compound >
23

> <standard_type>
pIC50

> <# Confs.>
25

> <canonical_smiles>
O=S(C(C=C1)=CC=C1NC2=NC=C(N=O)C(OCC3CCCCC3)=N2)(N(CC)CC)=O

> <standard_relation>
=

> <predicted_activity_value>
7.288192770958809

> <actual_activity_value>
7.0655015487564325

> <Publication ID>
nan

> <standard_units>
nM

> hash
11374675463381991714

$$$$
23_
XXILIB    08252103453D 0   0.00000     0.00000

 31 33  0     1  0            999 V2000
    5.3845   -0.0716    4.4469 S   0  0  2  0  0  6           0  0  0
    6.4909   -0.9020    4.0089 O   0  0  0  0  0  2           0  0  0
    5.6205    1.2969    4.8676 O   0  0  0  0  0  2           0  0  0
   -4.5673   -0.5792   -1.1312 O   0  0  0  0  0  2           0  0  0
   -2.7434    0.0289    2.3192 O   0  0  0  0  0  2           0  0  0
   -0.6711   -0.0000    1.1778 N   0  0  0  0  0  3           0  0  0
   -0.6205    0.0032   -1.2019 N   0  0  0  0  0  3           0  0  0
    4.4958   -0.9051    5.6769 N   0  0  1  0  0  3           0  0  0
   -4.1153   -0.0009   -0.1358 N   0  0  0  0  0  3           0  0  0
    1.4050    0.0000   -0.0000 N   0  0  0  0  0  3           0  0  0
    4.2115   -0.0327    3.1277 C   0  0  0  0  0  4           0  0  0
   -2.0261   -0.0010    1.1345 C   0  0  0  0  0  4           0  0  0
    0.0000    0.0000    0.0000 C   0  0  0  0  0  4           0  0  0
   -1.9717   -0.0013   -1.1987 C   0  0  0  0  0  4           0  0  0
   -2.7422   -0.0153   -0.0527 C   0  0  0  0  0  4           0  0  0
    2.3186    0.0000    1.0572 C   0  0  0  0  0  4           0  0  0
    4.5151   -0.6361    1.9108 C   0  0  0  0  0  4           0  0  0
    2.9752    0.5754    3.3331 C   0  0  0  0  0  4           0  0  0
    3.5707   -0.6131    0.8820 C   0  0  0  0  0  4           0  0  0
    2.0362    0.5916    2.2986 C   0  0  0  0  0  4           0  0  0
   -1.9323    0.0585    3.4935 C   0  0  0  0  0  4           0  0  0
    4.0378   -2.2804    5.3515 C   0  0  0  0  0  4           0  0  0
    5.0767   -0.8075    7.0527 C   0  0  0  0  0  4           0  0  0
   -2.8427    0.0895    4.7186 C   0  0  1  0  0  4           0  0  0
   -3.7531    1.3293    4.7130 C   0  0  0  0  0  4           0  0  0
   -3.6775   -1.1960    4.7980 C   0  0  0  0  0  4           0  0  0
   -4.7042    1.3374    5.9084 C   0  0  0  0  0  4           0  0  0
   -4.6255   -1.1828    5.9947 C   0  0  0  0  0  4           0  0  0
   -5.5205    0.0518    5.9905 C   0  0  0  0  0  4           0  0  0
    2.7498   -2.5958    6.0914 C   0  0  0  0  0  4           0  0  0
    4.5132    0.4015    7.7782 C   0  0  0  0  0  4           0  0  0
  1  2  2  0     0  0
  1  3  2  0     0  0
  1  8  1  0     0  0
  1 11  1  0     0  0
  4  9  2  0     0  0
  5 12  1  0     0  0
  5 21  1  0     0  0
  6 12  2  0     0  0
  6 13  1  0     0  0
  7 13  2  0     0  0
  7 14  1  0     0  0
  8 22  1  0     0  0
  8 23  1  0     0  0
  9 15  1  0     0  0
 10 13  1  0     0  0
 10 16  1  0     0  0
 11 17  1  0     0  0
 11 18  2  0     0  0
 12 15  1  0     0  0
 14 15  2  0     0  0
 16 19  1  0     0  0
 16 20  2  0     0  0
 17 19  2  0     0  0
 18 20  1  0     0  0
 21 24  1  0     0  0
 22 30  1  0     0  0
 23 31  1  0     0  0
 24 25  1  0     0  0
 24 26  1  0     0  0
 25 27  1  0     0  0
 26 28  1  0     0  0
 27 29  1  0     0  0
 28 29  1  0     0  0
M  END
> <Compound >
23

> <standard_type>
pIC50

> <# Confs.>
25

> <canonical_smiles>
O=S(C(C=C1)=CC=C1NC2=NC=C(N=O)C(OCC3CCCCC3)=N2)(N(CC)CC)=O

> <standard_relation>
=

> <predicted_activity_value>
7.288192770958809

> <actual_activity_value>
7.0655015487564325

> <Publication ID>
nan

> <standard_units>
nM

> hash
11374675463381991714

$$$$
23_
XXILIB    08252103453D 0   0.00000     0.00000

 31 33  0     1  0            999 V2000
    5.4011   -0.0101    4.4326 S   0  0  2  0  0  6           0  0  0
    6.6330    0.5421    3.9007 O   0  0  0  0  0  2           0  0  0
    4.7789    0.5844    5.6007 O   0  0  0  0  0  2           0  0  0
   -4.5673   -0.5792   -1.1312 O   0  0  0  0  0  2           0  0  0
   -2.7434    0.0289    2.3192 O   0  0  0  0  0  2           0  0  0
   -0.6711   -0.0000    1.1778 N   0  0  0  0  0  3           0  0  0
   -0.6205    0.0032   -1.2019 N   0  0  0  0  0  3           0  0  0
    5.6015   -1.7102    4.6916 N   0  0  1  0  0  3           0  0  0
   -4.1153   -0.0009   -0.1358 N   0  0  0  0  0  3           0  0  0
    1.4050    0.0000    0.0000 N   0  0  0  0  0  3           0  0  0
    4.2159    0.0109    3.1239 C   0  0  0  0  0  4           0  0  0
   -2.0261   -0.0010    1.1345 C   0  0  0  0  0  4           0  0  0
    0.0000    0.0000    0.0000 C   0  0  0  0  0  4           0  0  0
   -1.9717   -0.0013   -1.1987 C   0  0  0  0  0  4           0  0  0
   -2.7422   -0.0153   -0.0527 C   0  0  0  0  0  4           0  0  0
    2.3186    0.0000    1.0572 C   0  0  0  0  0  4           0  0  0
    4.6439    0.0011    1.7995 C   0  0  0  0  0  4           0  0  0
    2.8580    0.0027    3.4344 C   0  0  0  0  0  4           0  0  0
    3.6950    0.0000    0.7746 C   0  0  0  0  0  4           0  0  0
    1.9163   -0.0003    2.4022 C   0  0  0  0  0  4           0  0  0
   -1.9323    0.0585    3.4935 C   0  0  0  0  0  4           0  0  0
    4.3872   -2.4723    5.0814 C   0  0  0  0  0  4           0  0  0
    6.4091   -2.4178    3.6490 C   0  0  0  0  0  4           0  0  0
   -2.8427    0.0895    4.7186 C   0  0  1  0  0  4           0  0  0
   -3.7533   -1.1489    4.7755 C   0  0  0  0  0  4           0  0  0
   -2.0095    0.2094    6.0020 C   0  0  0  0  0  4           0  0  0
   -4.6280   -1.1501    6.0280 C   0  0  0  0  0  4           0  0  0
   -2.8886    0.2084    7.2503 C   0  0  0  0  0  4           0  0  0
   -3.7959   -1.0162    7.2990 C   0  0  0  0  0  4           0  0  0
    4.7658   -3.6585    5.9504 C   0  0  0  0  0  4           0  0  0
    7.8794   -2.4134    4.0284 C   0  0  0  0  0  4           0  0  0
  1  2  2  0     0  0
  1  3  2  0     0  0
  1  8  1  0     0  0
  1 11  1  0     0  0
  4  9  2  0     0  0
  5 12  1  0     0  0
  5 21  1  0     0  0
  6 12  2  0     0  0
  6 13  1  0     0  0
  7 13  2  0     0  0
  7 14  1  0     0  0
  8 22  1  0     0  0
  8 23  1  0     0  0
  9 15  1  0     0  0
 10 13  1  0     0  0
 10 16  1  0     0  0
 11 17  1  0     0  0
 11 18  2  0     0  0
 12 15  1  0     0  0
 14 15  2  0     0  0
 16 19  1  0     0  0
 16 20  2  0     0  0
 17 19  2  0     0  0
 18 20  1  0     0  0
 21 24  1  0     0  0
 22 30  1  0     0  0
 23 31  1  0     0  0
 24 25  1  0     0  0
 24 26  1  0     0  0
 25 27  1  0     0  0
 26 28  1  0     0  0
 27 29  1  0     0  0
 28 29  1  0     0  0
M  END
> <Compound >
23

> <standard_type>
pIC50

> <# Confs.>
25

> <canonical_smiles>
O=S(C(C=C1)=CC=C1NC2=NC=C(N=O)C(OCC3CCCCC3)=N2)(N(CC)CC)=O

> <standard_relation>
=

> <predicted_activity_value>
7.288192770958809

> <actual_activity_value>
7.0655015487564325

> <Publication ID>
nan

> <standard_units>
nM

> hash
11374675463381991714

$$$$
23_
XXILIB    08252103453D 0   0.00000     0.00000

 31 33  0     1  0            999 V2000
    5.3922    0.0540    4.4402 S   0  0  2  0  0  6           0  0  0
    6.6177    0.6118    3.8994 O   0  0  0  0  0  2           0  0  0
    4.7680    0.6546    5.6043 O   0  0  0  0  0  2           0  0  0
   -4.5673   -0.5792   -1.1312 O   0  0  0  0  0  2           0  0  0
   -2.7434    0.0289    2.3192 O   0  0  0  0  0  2           0  0  0
   -0.6711   -0.0000    1.1778 N   0  0  0  0  0  3           0  0  0
   -0.6205    0.0032   -1.2019 N   0  0  0  0  0  3           0  0  0
    5.6083   -1.6416    4.7155 N   0  0  1  0  0  3           0  0  0
   -4.1153   -0.0009   -0.1358 N   0  0  0  0  0  3           0  0  0
    1.4050    0.0000    0.0000 N   0  0  0  0  0  3           0  0  0
    4.2032    0.0516    3.1349 C   0  0  0  0  0  4           0  0  0
   -2.0261   -0.0010    1.1345 C   0  0  0  0  0  4           0  0  0
    0.0000    0.0000    0.0000 C   0  0  0  0  0  4           0  0  0
   -1.9717   -0.0013   -1.1987 C   0  0  0  0  0  4           0  0  0
   -2.7422   -0.0153   -0.0527 C   0  0  0  0  0  4           0  0  0
    2.3186    0.0000    1.0572 C   0  0  0  0  0  4           0  0  0
    4.5143    0.6380    1.9115 C   0  0  0  0  0  4           0  0  0
    2.9732   -0.5707    3.3349 C   0  0  0  0  0  4           0  0  0
    3.5707    0.6131    0.8820 C   0  0  0  0  0  4           0  0  0
    2.0364   -0.5921    2.2984 C   0  0  0  0  0  4           0  0  0
   -1.9323    0.0585    3.4935 C   0  0  0  0  0  4           0  0  0
    6.1021   -2.4452    3.5677 C   0  0  0  0  0  4           0  0  0
    6.2993   -1.9912    5.9962 C   0  0  0  0  0  4           0  0  0
   -2.8427    0.0895    4.7186 C   0  0  1  0  0  4           0  0  0
   -2.0298    0.1224    6.0240 C   0  0  0  0  0  4           0  0  0
   -3.7990    1.2877    4.6449 C   0  0  0  0  0  4           0  0  0
   -2.9352    0.2084    7.2515 C   0  0  0  0  0  4           0  0  0
   -4.7018    1.3683    5.8735 C   0  0  0  0  0  4           0  0  0
   -3.8930    1.3921    7.1660 C   0  0  0  0  0  4           0  0  0
    5.5726   -3.8658    3.6522 C   0  0  0  0  0  4           0  0  0
    5.2843   -2.1667    7.1118 C   0  0  0  0  0  4           0  0  0
  1  2  2  0     0  0
  1  3  2  0     0  0
  1  8  1  0     0  0
  1 11  1  0     0  0
  4  9  2  0     0  0
  5 12  1  0     0  0
  5 21  1  0     0  0
  6 12  2  0     0  0
  6 13  1  0     0  0
  7 13  2  0     0  0
  7 14  1  0     0  0
  8 22  1  0     0  0
  8 23  1  0     0  0
  9 15  1  0     0  0
 10 13  1  0     0  0
 10 16  1  0     0  0
 11 17  1  0     0  0
 11 18  2  0     0  0
 12 15  1  0     0  0
 14 15  2  0     0  0
 16 19  1  0     0  0
 16 20  2  0     0  0
 17 19  2  0     0  0
 18 20  1  0     0  0
 21 24  1  0     0  0
 22 30  1  0     0  0
 23 31  1  0     0  0
 24 25  1  0     0  0
 24 26  1  0     0  0
 25 27  1  0     0  0
 26 28  1  0     0  0
 27 29  1  0     0  0
 28 29  1  0     0  0
M  END
> <Compound >
23

> <standard_type>
pIC50

> <# Confs.>
25

> <canonical_smiles>
O=S(C(C=C1)=CC=C1NC2=NC=C(N=O)C(OCC3CCCCC3)=N2)(N(CC)CC)=O

> <standard_relation>
=

> <predicted_activity_value>
7.288192770958809

> <actual_activity_value>
7.0655015487564325

> <Publication ID>
nan

> <standard_units>
nM

> hash
11374675463381991714

$$$$
23_
XXILIB    08252103453D 0   0.00000     0.00000

 31 33  0     1  0            999 V2000
    5.3922    0.0540    4.4402 S   0  0  2  0  0  6           0  0  0
    6.6177    0.6118    3.8994 O   0  0  0  0  0  2           0  0  0
    4.7680    0.6546    5.6043 O   0  0  0  0  0  2           0  0  0
   -4.5673   -0.5792   -1.1312 O   0  0  0  0  0  2           0  0  0
   -2.7434    0.0289    2.3192 O   0  0  0  0  0  2           0  0  0
   -0.6711   -0.0000    1.1778 N   0  0  0  0  0  3           0  0  0
   -0.6205    0.0032   -1.2019 N   0  0  0  0  0  3           0  0  0
    5.6083   -1.6416    4.7155 N   0  0  1  0  0  3           0  0  0
   -4.1153   -0.0009   -0.1358 N   0  0  0  0  0  3           0  0  0
    1.4050    0.0000    0.0000 N   0  0  0  0  0  3           0  0  0
    4.2032    0.0516    3.1349 C   0  0  0  0  0  4           0  0  0
   -2.0261   -0.0010    1.1345 C   0  0  0  0  0  4           0  0  0
    0.0000    0.0000    0.0000 C   0  0  0  0  0  4           0  0  0
   -1.9717   -0.0013   -1.1987 C   0  0  0  0  0  4           0  0  0
   -2.7422   -0.0153   -0.0527 C   0  0  0  0  0  4           0  0  0
    2.3186    0.0000    1.0572 C   0  0  0  0  0  4           0  0  0
    4.5143    0.6380    1.9115 C   0  0  0  0  0  4           0  0  0
    2.9732   -0.5707    3.3349 C   0  0  0  0  0  4           0  0  0
    3.5707    0.6131    0.8820 C   0  0  0  0  0  4           0  0  0
    2.0364   -0.5921    2.2984 C   0  0  0  0  0  4           0  0  0
   -1.9323    0.0585    3.4935 C   0  0  0  0  0  4           0  0  0
    6.1021   -2.4452    3.5677 C   0  0  0  0  0  4           0  0  0
    6.2993   -1.9912    5.9962 C   0  0  0  0  0  4           0  0  0
   -2.8427    0.0895    4.7186 C   0  0  1  0  0  4           0  0  0
   -3.7531    1.3293    4.7130 C   0  0  0  0  0  4           0  0  0
   -3.6775   -1.1960    4.7980 C   0  0  0  0  0  4           0  0  0
   -4.7042    1.3374    5.9084 C   0  0  0  0  0  4           0  0  0
   -4.6255   -1.1828    5.9947 C   0  0  0  0  0  4           0  0  0
   -5.5205    0.0518    5.9905 C   0  0  0  0  0  4           0  0  0
    5.5726   -3.8658    3.6522 C   0  0  0  0  0  4           0  0  0
    5.2843   -2.1667    7.1118 C   0  0  0  0  0  4           0  0  0
  1  2  2  0     0  0
  1  3  2  0     0  0
  1  8  1  0     0  0
  1 11  1  0     0  0
  4  9  2  0     0  0
  5 12  1  0     0  0
  5 21  1  0     0  0
  6 12  2  0     0  0
  6 13  1  0     0  0
  7 13  2  0     0  0
  7 14  1  0     0  0
  8 22  1  0     0  0
  8 23  1  0     0  0
  9 15  1  0     0  0
 10 13  1  0     0  0
 10 16  1  0     0  0
 11 17  1  0     0  0
 11 18  2  0     0  0
 12 15  1  0     0  0
 14 15  2  0     0  0
 16 19  1  0     0  0
 16 20  2  0     0  0
 17 19  2  0     0  0
 18 20  1  0     0  0
 21 24  1  0     0  0
 22 30  1  0     0  0
 23 31  1  0     0  0
 24 25  1  0     0  0
 24 26  1  0     0  0
 25 27  1  0     0  0
 26 28  1  0     0  0
 27 29  1  0     0  0
 28 29  1  0     0  0
M  END
> <Compound >
23

> <standard_type>
pIC50

> <# Confs.>
25

> <canonical_smiles>
O=S(C(C=C1)=CC=C1NC2=NC=C(N=O)C(OCC3CCCCC3)=N2)(N(CC)CC)=O

> <standard_relation>
=

> <predicted_activity_value>
7.288192770958809

> <actual_activity_value>
7.0655015487564325

> <Publication ID>
nan

> <standard_units>
nM

> hash
11374675463381991714

$$$$
23_
XXILIB    08252103453D 0   0.00000     0.00000

 31 33  0     1  0            999 V2000
    5.4011   -0.0101    4.4326 S   0  0  2  0  0  6           0  0  0
    4.7412   -0.5726    5.5960 O   0  0  0  0  0  2           0  0  0
    6.6154   -0.6152    3.9181 O   0  0  0  0  0  2           0  0  0
   -4.5673   -0.5792   -1.1312 O   0  0  0  0  0  2           0  0  0
   -2.7434    0.0289    2.3192 O   0  0  0  0  0  2           0  0  0
   -0.6711   -0.0000    1.1778 N   0  0  0  0  0  3           0  0  0
   -0.6205    0.0032   -1.2019 N   0  0  0  0  0  3           0  0  0
    5.6662    1.6817    4.6875 N   0  0  1  0  0  3           0  0  0
   -4.1153   -0.0009   -0.1358 N   0  0  0  0  0  3           0  0  0
    1.4050    0.0000    0.0000 N   0  0  0  0  0  3           0  0  0
    4.2159    0.0109    3.1239 C   0  0  0  0  0  4           0  0  0
   -2.0261   -0.0010    1.1345 C   0  0  0  0  0  4           0  0  0
    0.0000    0.0000    0.0000 C   0  0  0  0  0  4           0  0  0
   -1.9717   -0.0013   -1.1987 C   0  0  0  0  0  4           0  0  0
   -2.7422   -0.0153   -0.0527 C   0  0  0  0  0  4           0  0  0
    2.3186    0.0000    1.0572 C   0  0  0  0  0  4           0  0  0
    4.6439    0.0011    1.7995 C   0  0  0  0  0  4           0  0  0
    2.8580    0.0027    3.4344 C   0  0  0  0  0  4           0  0  0
    3.6950    0.0000    0.7746 C   0  0  0  0  0  4           0  0  0
    1.9163   -0.0003    2.4022 C   0  0  0  0  0  4           0  0  0
   -1.9323    0.0585    3.4935 C   0  0  0  0  0  4           0  0  0
    6.1863    2.4560    3.5312 C   0  0  0  0  0  4           0  0  0
    4.5603    2.3945    5.4007 C   0  0  0  0  0  4           0  0  0
   -2.8427    0.0895    4.7186 C   0  0  1  0  0  4           0  0  0
   -2.0298    0.1224    6.0240 C   0  0  0  0  0  4           0  0  0
   -3.7990    1.2877    4.6449 C   0  0  0  0  0  4           0  0  0
   -2.9352    0.2084    7.2515 C   0  0  0  0  0  4           0  0  0
   -4.7018    1.3683    5.8735 C   0  0  0  0  0  4           0  0  0
   -3.8930    1.3921    7.1660 C   0  0  0  0  0  4           0  0  0
    7.0325    3.6205    4.0145 C   0  0  0  0  0  4           0  0  0
    4.7924    2.3599    6.9010 C   0  0  0  0  0  4           0  0  0
  1  2  2  0     0  0
  1  3  2  0     0  0
  1  8  1  0     0  0
  1 11  1  0     0  0
  4  9  2  0     0  0
  5 12  1  0     0  0
  5 21  1  0     0  0
  6 12  2  0     0  0
  6 13  1  0     0  0
  7 13  2  0     0  0
  7 14  1  0     0  0
  8 22  1  0     0  0
  8 23  1  0     0  0
  9 15  1  0     0  0
 10 13  1  0     0  0
 10 16  1  0     0  0
 11 17  1  0     0  0
 11 18  2  0     0  0
 12 15  1  0     0  0
 14 15  2  0     0  0
 16 19  1  0     0  0
 16 20  2  0     0  0
 17 19  2  0     0  0
 18 20  1  0     0  0
 21 24  1  0     0  0
 22 30  1  0     0  0
 23 31  1  0     0  0
 24 25  1  0     0  0
 24 26  1  0     0  0
 25 27  1  0     0  0
 26 28  1  0     0  0
 27 29  1  0     0  0
 28 29  1  0     0  0
M  END
> <Compound >
23

> <standard_type>
pIC50

> <# Confs.>
25

> <canonical_smiles>
O=S(C(C=C1)=CC=C1NC2=NC=C(N=O)C(OCC3CCCCC3)=N2)(N(CC)CC)=O

> <standard_relation>
=

> <predicted_activity_value>
7.288192770958809

> <actual_activity_value>
7.0655015487564325

> <Publication ID>
nan

> <standard_units>
nM

> hash
11374675463381991714

$$$$
23_
XXILIB    08252103453D 0   0.00000     0.00000

 31 33  0     1  0            999 V2000
    5.4011   -0.0101    4.4326 S   0  0  2  0  0  6           0  0  0
    6.7077   -0.1675    3.8215 O   0  0  0  0  0  2           0  0  0
    5.1292    1.1267    5.2922 O   0  0  0  0  0  2           0  0  0
   -4.5673   -0.5792   -1.1312 O   0  0  0  0  0  2           0  0  0
   -2.7434    0.0289    2.3192 O   0  0  0  0  0  2           0  0  0
   -0.6711   -0.0000    1.1778 N   0  0  0  0  0  3           0  0  0
   -0.6205    0.0032   -1.2019 N   0  0  0  0  0  3           0  0  0
    4.9774   -1.4703    5.2607 N   0  0  1  0  0  3           0  0  0
   -4.1153   -0.0009   -0.1358 N   0  0  0  0  0  3           0  0  0
    1.4050    0.0000   -0.0000 N   0  0  0  0  0  3           0  0  0
    4.2159    0.0109    3.1239 C   0  0  0  0  0  4           0  0  0
   -2.0261   -0.0010    1.1345 C   0  0  0  0  0  4           0  0  0
    0.0000    0.0000    0.0000 C   0  0  0  0  0  4           0  0  0
   -1.9717   -0.0013   -1.1987 C   0  0  0  0  0  4           0  0  0
   -2.7422   -0.0153   -0.0527 C   0  0  0  0  0  4           0  0  0
    2.3186    0.0000    1.0572 C   0  0  0  0  0  4           0  0  0
    4.6439    0.0011    1.7995 C   0  0  0  0  0  4           0  0  0
    2.8580    0.0027    3.4344 C   0  0  0  0  0  4           0  0  0
    3.6950    0.0000    0.7746 C   0  0  0  0  0  4           0  0  0
    1.9163   -0.0003    2.4022 C   0  0  0  0  0  4           0  0  0
   -1.9323    0.0585    3.4935 C   0  0  0  0  0  4           0  0  0
    5.0532   -2.7283    4.4740 C   0  0  0  0  0  4           0  0  0
    5.5680   -1.6158    6.6281 C   0  0  0  0  0  4           0  0  0
   -2.8427    0.0895    4.7186 C   0  0  1  0  0  4           0  0  0
   -3.7533   -1.1489    4.7755 C   0  0  0  0  0  4           0  0  0
   -2.0095    0.2094    6.0020 C   0  0  0  0  0  4           0  0  0
   -4.6280   -1.1501    6.0280 C   0  0  0  0  0  4           0  0  0
   -2.8886    0.2084    7.2503 C   0  0  0  0  0  4           0  0  0
   -3.7959   -1.0162    7.2990 C   0  0  0  0  0  4           0  0  0
    4.0325   -3.7306    4.9830 C   0  0  0  0  0  4           0  0  0
    4.6384   -1.0191    7.6700 C   0  0  0  0  0  4           0  0  0
  1  2  2  0     0  0
  1  3  2  0     0  0
  1  8  1  0     0  0
  1 11  1  0     0  0
  4  9  2  0     0  0
  5 12  1  0     0  0
  5 21  1  0     0  0
  6 12  2  0     0  0
  6 13  1  0     0  0
  7 13  2  0     0  0
  7 14  1  0     0  0
  8 22  1  0     0  0
  8 23  1  0     0  0
  9 15  1  0     0  0
 10 13  1  0     0  0
 10 16  1  0     0  0
 11 17  1  0     0  0
 11 18  2  0     0  0
 12 15  1  0     0  0
 14 15  2  0     0  0
 16 19  1  0     0  0
 16 20  2  0     0  0
 17 19  2  0     0  0
 18 20  1  0     0  0
 21 24  1  0     0  0
 22 30  1  0     0  0
 23 31  1  0     0  0
 24 25  1  0     0  0
 24 26  1  0     0  0
 25 27  1  0     0  0
 26 28  1  0     0  0
 27 29  1  0     0  0
 28 29  1  0     0  0
M  END
> <Compound >
23

> <standard_type>
pIC50

> <# Confs.>
25

> <canonical_smiles>
O=S(C(C=C1)=CC=C1NC2=NC=C(N=O)C(OCC3CCCCC3)=N2)(N(CC)CC)=O

> <standard_relation>
=

> <predicted_activity_value>
7.288192770958809

> <actual_activity_value>
7.0655015487564325

> <Publication ID>
nan

> <standard_units>
nM

> hash
11374675463381991714

$$$$
23_
XXILIB    08252103453D 0   0.00000     0.00000

 31 33  0     1  0            999 V2000
    5.4011   -0.0101    4.4326 S   0  0  2  0  0  6           0  0  0
    6.6330    0.5421    3.9007 O   0  0  0  0  0  2           0  0  0
    4.7789    0.5844    5.6007 O   0  0  0  0  0  2           0  0  0
   -4.5673   -0.5792   -1.1312 O   0  0  0  0  0  2           0  0  0
   -2.7434    0.0289    2.3192 O   0  0  0  0  0  2           0  0  0
   -0.6711   -0.0000    1.1778 N   0  0  0  0  0  3           0  0  0
   -0.6205    0.0032   -1.2019 N   0  0  0  0  0  3           0  0  0
    5.6015   -1.7102    4.6916 N   0  0  1  0  0  3           0  0  0
   -4.1153   -0.0009   -0.1358 N   0  0  0  0  0  3           0  0  0
    1.4050    0.0000    0.0000 N   0  0  0  0  0  3           0  0  0
    4.2159    0.0109    3.1239 C   0  0  0  0  0  4           0  0  0
   -2.0261   -0.0010    1.1345 C   0  0  0  0  0  4           0  0  0
    0.0000    0.0000    0.0000 C   0  0  0  0  0  4           0  0  0
   -1.9717   -0.0013   -1.1987 C   0  0  0  0  0  4           0  0  0
   -2.7422   -0.0153   -0.0527 C   0  0  0  0  0  4           0  0  0
    2.3186    0.0000    1.0572 C   0  0  0  0  0  4           0  0  0
    4.6439    0.0011    1.7995 C   0  0  0  0  0  4           0  0  0
    2.8580    0.0027    3.4344 C   0  0  0  0  0  4           0  0  0
    3.6950    0.0000    0.7746 C   0  0  0  0  0  4           0  0  0
    1.9163   -0.0003    2.4022 C   0  0  0  0  0  4           0  0  0
   -1.9323    0.0585    3.4935 C   0  0  0  0  0  4           0  0  0
    4.3872   -2.4723    5.0814 C   0  0  0  0  0  4           0  0  0
    6.4091   -2.4178    3.6490 C   0  0  0  0  0  4           0  0  0
   -2.8427    0.0895    4.7186 C   0  0  1  0  0  4           0  0  0
   -2.0298    0.1224    6.0240 C   0  0  0  0  0  4           0  0  0
   -3.7990    1.2877    4.6449 C   0  0  0  0  0  4           0  0  0
   -2.9352    0.2084    7.2515 C   0  0  0  0  0  4           0  0  0
   -4.7018    1.3683    5.8735 C   0  0  0  0  0  4           0  0  0
   -3.8930    1.3921    7.1660 C   0  0  0  0  0  4           0  0  0
    4.7658   -3.6585    5.9504 C   0  0  0  0  0  4           0  0  0
    7.8794   -2.4134    4.0284 C   0  0  0  0  0  4           0  0  0
  1  2  2  0     0  0
  1  3  2  0     0  0
  1  8  1  0     0  0
  1 11  1  0     0  0
  4  9  2  0     0  0
  5 12  1  0     0  0
  5 21  1  0     0  0
  6 12  2  0     0  0
  6 13  1  0     0  0
  7 13  2  0     0  0
  7 14  1  0     0  0
  8 22  1  0     0  0
  8 23  1  0     0  0
  9 15  1  0     0  0
 10 13  1  0     0  0
 10 16  1  0     0  0
 11 17  1  0     0  0
 11 18  2  0     0  0
 12 15  1  0     0  0
 14 15  2  0     0  0
 16 19  1  0     0  0
 16 20  2  0     0  0
 17 19  2  0     0  0
 18 20  1  0     0  0
 21 24  1  0     0  0
 22 30  1  0     0  0
 23 31  1  0     0  0
 24 25  1  0     0  0
 24 26  1  0     0  0
 25 27  1  0     0  0
 26 28  1  0     0  0
 27 29  1  0     0  0
 28 29  1  0     0  0
M  END
> <Compound >
23

> <standard_type>
pIC50

> <# Confs.>
25

> <canonical_smiles>
O=S(C(C=C1)=CC=C1NC2=NC=C(N=O)C(OCC3CCCCC3)=N2)(N(CC)CC)=O

> <standard_relation>
=

> <predicted_activity_value>
7.288192770958809

> <actual_activity_value>
7.0655015487564325

> <Publication ID>
nan

> <standard_units>
nM

> hash
11374675463381991714

$$$$
23_
XXILIB    08252103453D 0   0.00000     0.00000

 31 33  0     1  0            999 V2000
    5.4011   -0.0101    4.4326 S   0  0  2  0  0  6           0  0  0
    4.7412   -0.5726    5.5960 O   0  0  0  0  0  2           0  0  0
    6.6154   -0.6152    3.9181 O   0  0  0  0  0  2           0  0  0
   -4.5673   -0.5792   -1.1312 O   0  0  0  0  0  2           0  0  0
   -2.7434    0.0289    2.3192 O   0  0  0  0  0  2           0  0  0
   -0.6711   -0.0000    1.1778 N   0  0  0  0  0  3           0  0  0
   -0.6205    0.0032   -1.2019 N   0  0  0  0  0  3           0  0  0
    5.6662    1.6817    4.6875 N   0  0  1  0  0  3           0  0  0
   -4.1153   -0.0009   -0.1358 N   0  0  0  0  0  3           0  0  0
    1.4050    0.0000    0.0000 N   0  0  0  0  0  3           0  0  0
    4.2159    0.0109    3.1239 C   0  0  0  0  0  4           0  0  0
   -2.0261   -0.0010    1.1345 C   0  0  0  0  0  4           0  0  0
    0.0000    0.0000    0.0000 C   0  0  0  0  0  4           0  0  0
   -1.9717   -0.0013   -1.1987 C   0  0  0  0  0  4           0  0  0
   -2.7422   -0.0153   -0.0527 C   0  0  0  0  0  4           0  0  0
    2.3186    0.0000    1.0572 C   0  0  0  0  0  4           0  0  0
    4.6439    0.0011    1.7995 C   0  0  0  0  0  4           0  0  0
    2.8580    0.0027    3.4344 C   0  0  0  0  0  4           0  0  0
    3.6950    0.0000    0.7746 C   0  0  0  0  0  4           0  0  0
    1.9163   -0.0003    2.4022 C   0  0  0  0  0  4           0  0  0
   -1.9323    0.0585    3.4935 C   0  0  0  0  0  4           0  0  0
    6.1863    2.4560    3.5312 C   0  0  0  0  0  4           0  0  0
    4.5603    2.3945    5.4007 C   0  0  0  0  0  4           0  0  0
   -2.8427    0.0895    4.7186 C   0  0  1  0  0  4           0  0  0
   -3.7531    1.3293    4.7130 C   0  0  0  0  0  4           0  0  0
   -3.6775   -1.1960    4.7980 C   0  0  0  0  0  4           0  0  0
   -4.7042    1.3374    5.9084 C   0  0  0  0  0  4           0  0  0
   -4.6255   -1.1828    5.9947 C   0  0  0  0  0  4           0  0  0
   -5.5205    0.0518    5.9905 C   0  0  0  0  0  4           0  0  0
    7.0325    3.6205    4.0145 C   0  0  0  0  0  4           0  0  0
    4.7924    2.3599    6.9010 C   0  0  0  0  0  4           0  0  0
  1  2  2  0     0  0
  1  3  2  0     0  0
  1  8  1  0     0  0
  1 11  1  0     0  0
  4  9  2  0     0  0
  5 12  1  0     0  0
  5 21  1  0     0  0
  6 12  2  0     0  0
  6 13  1  0     0  0
  7 13  2  0     0  0
  7 14  1  0     0  0
  8 22  1  0     0  0
  8 23  1  0     0  0
  9 15  1  0     0  0
 10 13  1  0     0  0
 10 16  1  0     0  0
 11 17  1  0     0  0
 11 18  2  0     0  0
 12 15  1  0     0  0
 14 15  2  0     0  0
 16 19  1  0     0  0
 16 20  2  0     0  0
 17 19  2  0     0  0
 18 20  1  0     0  0
 21 24  1  0     0  0
 22 30  1  0     0  0
 23 31  1  0     0  0
 24 25  1  0     0  0
 24 26  1  0     0  0
 25 27  1  0     0  0
 26 28  1  0     0  0
 27 29  1  0     0  0
 28 29  1  0     0  0
M  END
> <Compound >
23

> <standard_type>
pIC50

> <# Confs.>
25

> <canonical_smiles>
O=S(C(C=C1)=CC=C1NC2=NC=C(N=O)C(OCC3CCCCC3)=N2)(N(CC)CC)=O

> <standard_relation>
=

> <predicted_activity_value>
7.288192770958809

> <actual_activity_value>
7.0655015487564325

> <Publication ID>
nan

> <standard_units>
nM

> hash
11374675463381991714

$$$$
23_
XXILIB    08252103453D 0   0.00000     0.00000

 31 33  0     1  0            999 V2000
    5.4011   -0.0101    4.4326 S   0  0  2  0  0  6           0  0  0
    6.6330    0.5421    3.9007 O   0  0  0  0  0  2           0  0  0
    4.7789    0.5844    5.6007 O   0  0  0  0  0  2           0  0  0
   -4.5673   -0.5792   -1.1312 O   0  0  0  0  0  2           0  0  0
   -2.7434    0.0289    2.3192 O   0  0  0  0  0  2           0  0  0
   -0.6711   -0.0000    1.1778 N   0  0  0  0  0  3           0  0  0
   -0.6205    0.0032   -1.2019 N   0  0  0  0  0  3           0  0  0
    5.6015   -1.7102    4.6916 N   0  0  1  0  0  3           0  0  0
   -4.1153   -0.0009   -0.1358 N   0  0  0  0  0  3           0  0  0
    1.4050    0.0000    0.0000 N   0  0  0  0  0  3           0  0  0
    4.2159    0.0109    3.1239 C   0  0  0  0  0  4           0  0  0
   -2.0261   -0.0010    1.1345 C   0  0  0  0  0  4           0  0  0
    0.0000    0.0000    0.0000 C   0  0  0  0  0  4           0  0  0
   -1.9717   -0.0013   -1.1987 C   0  0  0  0  0  4           0  0  0
   -2.7422   -0.0153   -0.0527 C   0  0  0  0  0  4           0  0  0
    2.3186    0.0000    1.0572 C   0  0  0  0  0  4           0  0  0
    4.6439    0.0011    1.7995 C   0  0  0  0  0  4           0  0  0
    2.8580    0.0027    3.4344 C   0  0  0  0  0  4           0  0  0
    3.6950    0.0000    0.7746 C   0  0  0  0  0  4           0  0  0
    1.9163   -0.0003    2.4022 C   0  0  0  0  0  4           0  0  0
   -1.9323    0.0585    3.4935 C   0  0  0  0  0  4           0  0  0
    4.3872   -2.4723    5.0814 C   0  0  0  0  0  4           0  0  0
    6.4091   -2.4178    3.6490 C   0  0  0  0  0  4           0  0  0
   -2.8427    0.0895    4.7186 C   0  0  1  0  0  4           0  0  0
   -3.7531    1.3293    4.7130 C   0  0  0  0  0  4           0  0  0
   -3.6775   -1.1960    4.7980 C   0  0  0  0  0  4           0  0  0
   -4.7042    1.3374    5.9084 C   0  0  0  0  0  4           0  0  0
   -4.6255   -1.1828    5.9947 C   0  0  0  0  0  4           0  0  0
   -5.5205    0.0518    5.9905 C   0  0  0  0  0  4           0  0  0
    4.7658   -3.6585    5.9504 C   0  0  0  0  0  4           0  0  0
    7.8794   -2.4134    4.0284 C   0  0  0  0  0  4           0  0  0
  1  2  2  0     0  0
  1  3  2  0     0  0
  1  8  1  0     0  0
  1 11  1  0     0  0
  4  9  2  0     0  0
  5 12  1  0     0  0
  5 21  1  0     0  0
  6 12  2  0     0  0
  6 13  1  0     0  0
  7 13  2  0     0  0
  7 14  1  0     0  0
  8 22  1  0     0  0
  8 23  1  0     0  0
  9 15  1  0     0  0
 10 13  1  0     0  0
 10 16  1  0     0  0
 11 17  1  0     0  0
 11 18  2  0     0  0
 12 15  1  0     0  0
 14 15  2  0     0  0
 16 19  1  0     0  0
 16 20  2  0     0  0
 17 19  2  0     0  0
 18 20  1  0     0  0
 21 24  1  0     0  0
 22 30  1  0     0  0
 23 31  1  0     0  0
 24 25  1  0     0  0
 24 26  1  0     0  0
 25 27  1  0     0  0
 26 28  1  0     0  0
 27 29  1  0     0  0
 28 29  1  0     0  0
M  END
> <Compound >
23

> <standard_type>
pIC50

> <# Confs.>
25

> <canonical_smiles>
O=S(C(C=C1)=CC=C1NC2=NC=C(N=O)C(OCC3CCCCC3)=N2)(N(CC)CC)=O

> <standard_relation>
=

> <predicted_activity_value>
7.288192770958809

> <actual_activity_value>
7.0655015487564325

> <Publication ID>
nan

> <standard_units>
nM

> hash
11374675463381991714

$$$$
24_
XXILIB    08252103453D 0   0.00000     0.00000

 27 29  0     1  0            999 V2000
   -0.5634   -0.5694   -3.3137 O   0  0  0  0  0  2           0  0  0
    1.3874    0.0000   -0.0000 O   0  0  0  0  0  2           0  0  0
   -0.0568   -0.4367    8.1645 O   0  0  0  0  0  2           0  0  0
   -2.0177    0.7076    8.5066 O   0  0  0  0  0  2           0  0  0
   -0.6612    0.0000    1.1790 N   0  0  0  0  0  3           0  0  0
   -2.7118   -0.0086   -0.0223 N   0  0  0  0  0  3           0  0  0
    0.0595    0.0025   -2.4107 N   0  0  0  0  0  3           0  0  0
   -2.7449    0.0062    2.3300 N   0  0  0  0  0  3           0  0  0
   -2.7865   -0.0002   -2.3752 N   0  0  0  0  0  3           0  0  0
    0.0000    0.0000    0.0000 C   0  0  0  0  0  4           0  0  0
   -2.0114   -0.0003    1.1361 C   0  0  0  0  0  4           0  0  0
   -2.0369   -0.0254   -1.1994 C   0  0  0  0  0  4           0  0  0
   -0.6429    0.0034   -1.2331 C   0  0  0  0  0  4           0  0  0
   -2.3213    0.0135    3.6611 C   0  0  0  0  0  4           0  0  0
   -1.5371    0.0707    6.3764 C   0  0  0  0  0  4           0  0  0
   -1.1177   -0.5745    4.0750 C   0  0  0  0  0  4           0  0  0
   -3.1232    0.6303    4.6335 C   0  0  0  0  0  4           0  0  0
   -0.7277   -0.5472    5.4185 C   0  0  0  0  0  4           0  0  0
   -2.7392    0.6617    5.9782 C   0  0  0  0  0  4           0  0  0
   -1.0899    0.0666    7.7650 C   0  0  0  0  0  4           0  0  0
    1.9743   -0.0000    1.3011 C   0  0  0  0  0  4           0  0  0
    3.4937    0.0000    1.1547 C   0  0  2  0  0  4           0  0  0
    4.1651   -0.0000    2.5347 C   0  0  0  0  0  4           0  0  0
    3.9760    1.1950    0.3150 C   0  0  0  0  0  4           0  0  0
    5.6874    0.0386    2.4245 C   0  0  0  0  0  4           0  0  0
    5.4994    1.2353    0.2105 C   0  0  0  0  0  4           0  0  0
    6.1609    1.2204    1.5847 C   0  0  0  0  0  4           0  0  0
  1  7  2  0     0  0
  2 10  1  0     0  0
  2 21  1  0     0  0
  3 20  2  0     0  0
  4 20  1  0     0  0
  5 10  2  0     0  0
  5 11  1  0     0  0
  6 11  2  0     0  0
  6 12  1  0     0  0
  7 13  1  0     0  0
  8 11  1  0     0  0
  8 14  1  0     0  0
  9 12  1  0     0  0
 10 13  1  0     0  0
 12 13  2  0     0  0
 14 16  2  0     0  0
 14 17  1  0     0  0
 15 18  2  0     0  0
 15 19  1  0     0  0
 15 20  1  0     0  0
 16 18  1  0     0  0
 17 19  2  0     0  0
 21 22  1  0     0  0
 22 23  1  0     0  0
 22 24  1  0     0  0
 23 25  1  0     0  0
 24 26  1  0     0  0
 25 27  1  0     0  0
 26 27  1  0     0  0
M  END
> <Compound >
24

> <standard_type>
pIC50

> <# Confs.>
25

> <canonical_smiles>
O=NC(C(OCC1CCCCC1)=N2)=C(N)N=C2NC3=CC=C(C(O)=O)C=C3

> <standard_relation>
=

> <predicted_activity_value>
7.430626090384954

> <actual_activity_value>
6.958607314841775

> <Publication ID>
nan

> <standard_units>
nM

> hash
10097127070848566691

$$$$
24_
XXILIB    08252103453D 0   0.00000     0.00000

 27 29  0     1  0            999 V2000
   -0.5634   -0.5694   -3.3137 O   0  0  0  0  0  2           0  0  0
    1.3874    0.0000   -0.0000 O   0  0  0  0  0  2           0  0  0
   -0.0428    0.4875    8.1550 O   0  0  0  0  0  2           0  0  0
   -2.0058   -0.6491    8.5102 O   0  0  0  0  0  2           0  0  0
   -0.6612    0.0000    1.1790 N   0  0  0  0  0  3           0  0  0
   -2.7118   -0.0086   -0.0223 N   0  0  0  0  0  3           0  0  0
    0.0595    0.0025   -2.4107 N   0  0  0  0  0  3           0  0  0
   -2.7449    0.0062    2.3300 N   0  0  0  0  0  3           0  0  0
   -2.7865   -0.0002   -2.3752 N   0  0  0  0  0  3           0  0  0
    0.0000    0.0000    0.0000 C   0  0  0  0  0  4           0  0  0
   -2.0114   -0.0003    1.1361 C   0  0  0  0  0  4           0  0  0
   -2.0369   -0.0254   -1.1994 C   0  0  0  0  0  4           0  0  0
   -0.6429    0.0034   -1.2331 C   0  0  0  0  0  4           0  0  0
   -2.3213    0.0135    3.6611 C   0  0  0  0  0  4           0  0  0
   -1.5358   -0.0164    6.3764 C   0  0  0  0  0  4           0  0  0
   -1.1178    0.6060    4.0686 C   0  0  0  0  0  4           0  0  0
   -3.1228   -0.5934    4.6401 C   0  0  0  0  0  4           0  0  0
   -0.7272    0.5924    5.4120 C   0  0  0  0  0  4           0  0  0
   -2.7386   -0.6103    5.9850 C   0  0  0  0  0  4           0  0  0
   -1.0813   -0.0102    7.7627 C   0  0  0  0  0  4           0  0  0
    1.9743   -0.0000    1.3011 C   0  0  0  0  0  4           0  0  0
    3.4937    0.0000    1.1547 C   0  0  2  0  0  4           0  0  0
    4.1651   -0.0000    2.5347 C   0  0  0  0  0  4           0  0  0
    3.9760    1.1950    0.3150 C   0  0  0  0  0  4           0  0  0
    5.6874    0.0386    2.4245 C   0  0  0  0  0  4           0  0  0
    5.4994    1.2353    0.2105 C   0  0  0  0  0  4           0  0  0
    6.1609    1.2204    1.5847 C   0  0  0  0  0  4           0  0  0
  1  7  2  0     0  0
  2 10  1  0     0  0
  2 21  1  0     0  0
  3 20  2  0     0  0
  4 20  1  0     0  0
  5 10  2  0     0  0
  5 11  1  0     0  0
  6 11  2  0     0  0
  6 12  1  0     0  0
  7 13  1  0     0  0
  8 11  1  0     0  0
  8 14  1  0     0  0
  9 12  1  0     0  0
 10 13  1  0     0  0
 12 13  2  0     0  0
 14 16  2  0     0  0
 14 17  1  0     0  0
 15 18  2  0     0  0
 15 19  1  0     0  0
 15 20  1  0     0  0
 16 18  1  0     0  0
 17 19  2  0     0  0
 21 22  1  0     0  0
 22 23  1  0     0  0
 22 24  1  0     0  0
 23 25  1  0     0  0
 24 26  1  0     0  0
 25 27  1  0     0  0
 26 27  1  0     0  0
M  END
> <Compound >
24

> <standard_type>
pIC50

> <# Confs.>
25

> <canonical_smiles>
O=NC(C(OCC1CCCCC1)=N2)=C(N)N=C2NC3=CC=C(C(O)=O)C=C3

> <standard_relation>
=

> <predicted_activity_value>
7.430626090384954

> <actual_activity_value>
6.958607314841775

> <Publication ID>
nan

> <standard_units>
nM

> hash
10097127070848566691

$$$$
24_
XXILIB    08252103453D 0   0.00000     0.00000

 27 29  0     1  0            999 V2000
   -0.5634   -0.5694   -3.3137 O   0  0  0  0  0  2           0  0  0
    1.3874    0.0000   -0.0000 O   0  0  0  0  0  2           0  0  0
   -0.0568   -0.4367    8.1645 O   0  0  0  0  0  2           0  0  0
   -2.0177    0.7076    8.5066 O   0  0  0  0  0  2           0  0  0
   -0.6612    0.0000    1.1790 N   0  0  0  0  0  3           0  0  0
   -2.7118   -0.0086   -0.0223 N   0  0  0  0  0  3           0  0  0
    0.0595    0.0025   -2.4107 N   0  0  0  0  0  3           0  0  0
   -2.7449    0.0062    2.3300 N   0  0  0  0  0  3           0  0  0
   -2.7865   -0.0002   -2.3752 N   0  0  0  0  0  3           0  0  0
    0.0000    0.0000    0.0000 C   0  0  0  0  0  4           0  0  0
   -2.0114   -0.0003    1.1361 C   0  0  0  0  0  4           0  0  0
   -2.0369   -0.0254   -1.1994 C   0  0  0  0  0  4           0  0  0
   -0.6429    0.0034   -1.2331 C   0  0  0  0  0  4           0  0  0
   -2.3213    0.0135    3.6611 C   0  0  0  0  0  4           0  0  0
   -1.5371    0.0707    6.3764 C   0  0  0  0  0  4           0  0  0
   -1.1177   -0.5745    4.0750 C   0  0  0  0  0  4           0  0  0
   -3.1232    0.6303    4.6335 C   0  0  0  0  0  4           0  0  0
   -0.7277   -0.5472    5.4185 C   0  0  0  0  0  4           0  0  0
   -2.7392    0.6617    5.9782 C   0  0  0  0  0  4           0  0  0
   -1.0899    0.0666    7.7650 C   0  0  0  0  0  4           0  0  0
    1.9743   -0.0000    1.3011 C   0  0  0  0  0  4           0  0  0
    3.4937    0.0000    1.1547 C   0  0  2  0  0  4           0  0  0
    3.9581   -1.2455    0.3875 C   0  0  0  0  0  4           0  0  0
    4.1890    0.0862    2.5239 C   0  0  0  0  0  4           0  0  0
    5.4784   -1.2963    0.2563 C   0  0  0  0  0  4           0  0  0
    5.7096    0.0296    2.3912 C   0  0  0  0  0  4           0  0  0
    6.1639   -1.2025    1.6154 C   0  0  0  0  0  4           0  0  0
  1  7  2  0     0  0
  2 10  1  0     0  0
  2 21  1  0     0  0
  3 20  2  0     0  0
  4 20  1  0     0  0
  5 10  2  0     0  0
  5 11  1  0     0  0
  6 11  2  0     0  0
  6 12  1  0     0  0
  7 13  1  0     0  0
  8 11  1  0     0  0
  8 14  1  0     0  0
  9 12  1  0     0  0
 10 13  1  0     0  0
 12 13  2  0     0  0
 14 16  2  0     0  0
 14 17  1  0     0  0
 15 18  2  0     0  0
 15 19  1  0     0  0
 15 20  1  0     0  0
 16 18  1  0     0  0
 17 19  2  0     0  0
 21 22  1  0     0  0
 22 23  1  0     0  0
 22 24  1  0     0  0
 23 25  1  0     0  0
 24 26  1  0     0  0
 25 27  1  0     0  0
 26 27  1  0     0  0
M  END
> <Compound >
24

> <standard_type>
pIC50

> <# Confs.>
25

> <canonical_smiles>
O=NC(C(OCC1CCCCC1)=N2)=C(N)N=C2NC3=CC=C(C(O)=O)C=C3

> <standard_relation>
=

> <predicted_activity_value>
7.430626090384954

> <actual_activity_value>
6.958607314841775

> <Publication ID>
nan

> <standard_units>
nM

> hash
10097127070848566691

$$$$
24_
XXILIB    08252103453D 0   0.00000     0.00000

 27 29  0     1  0            999 V2000
   -0.5634   -0.5694   -3.3137 O   0  0  0  0  0  2           0  0  0
    1.3874    0.0000   -0.0000 O   0  0  0  0  0  2           0  0  0
   -0.0428    0.4875    8.1550 O   0  0  0  0  0  2           0  0  0
   -2.0058   -0.6491    8.5102 O   0  0  0  0  0  2           0  0  0
   -0.6612    0.0000    1.1790 N   0  0  0  0  0  3           0  0  0
   -2.7118   -0.0086   -0.0223 N   0  0  0  0  0  3           0  0  0
    0.0595    0.0025   -2.4107 N   0  0  0  0  0  3           0  0  0
   -2.7449    0.0062    2.3300 N   0  0  0  0  0  3           0  0  0
   -2.7865   -0.0002   -2.3752 N   0  0  0  0  0  3           0  0  0
    0.0000    0.0000    0.0000 C   0  0  0  0  0  4           0  0  0
   -2.0114   -0.0003    1.1361 C   0  0  0  0  0  4           0  0  0
   -2.0369   -0.0254   -1.1994 C   0  0  0  0  0  4           0  0  0
   -0.6429    0.0034   -1.2331 C   0  0  0  0  0  4           0  0  0
   -2.3213    0.0135    3.6611 C   0  0  0  0  0  4           0  0  0
   -1.5358   -0.0164    6.3764 C   0  0  0  0  0  4           0  0  0
   -1.1178    0.6060    4.0686 C   0  0  0  0  0  4           0  0  0
   -3.1228   -0.5934    4.6401 C   0  0  0  0  0  4           0  0  0
   -0.7272    0.5924    5.4120 C   0  0  0  0  0  4           0  0  0
   -2.7386   -0.6103    5.9850 C   0  0  0  0  0  4           0  0  0
   -1.0813   -0.0102    7.7627 C   0  0  0  0  0  4           0  0  0
    1.9743   -0.0000    1.3011 C   0  0  0  0  0  4           0  0  0
    3.4937    0.0000    1.1547 C   0  0  2  0  0  4           0  0  0
    3.9581   -1.2455    0.3875 C   0  0  0  0  0  4           0  0  0
    4.1890    0.0862    2.5239 C   0  0  0  0  0  4           0  0  0
    5.4784   -1.2963    0.2563 C   0  0  0  0  0  4           0  0  0
    5.7096    0.0296    2.3912 C   0  0  0  0  0  4           0  0  0
    6.1639   -1.2025    1.6154 C   0  0  0  0  0  4           0  0  0
  1  7  2  0     0  0
  2 10  1  0     0  0
  2 21  1  0     0  0
  3 20  2  0     0  0
  4 20  1  0     0  0
  5 10  2  0     0  0
  5 11  1  0     0  0
  6 11  2  0     0  0
  6 12  1  0     0  0
  7 13  1  0     0  0
  8 11  1  0     0  0
  8 14  1  0     0  0
  9 12  1  0     0  0
 10 13  1  0     0  0
 12 13  2  0     0  0
 14 16  2  0     0  0
 14 17  1  0     0  0
 15 18  2  0     0  0
 15 19  1  0     0  0
 15 20  1  0     0  0
 16 18  1  0     0  0
 17 19  2  0     0  0
 21 22  1  0     0  0
 22 23  1  0     0  0
 22 24  1  0     0  0
 23 25  1  0     0  0
 24 26  1  0     0  0
 25 27  1  0     0  0
 26 27  1  0     0  0
M  END
> <Compound >
24

> <standard_type>
pIC50

> <# Confs.>
25

> <canonical_smiles>
O=NC(C(OCC1CCCCC1)=N2)=C(N)N=C2NC3=CC=C(C(O)=O)C=C3

> <standard_relation>
=

> <predicted_activity_value>
7.430626090384954

> <actual_activity_value>
6.958607314841775

> <Publication ID>
nan

> <standard_units>
nM

> hash
10097127070848566691

$$$$
24_
XXILIB    08252103453D 0   0.00000     0.00000

 27 29  0     1  0            999 V2000
   -0.5634   -0.5694   -3.3137 O   0  0  0  0  0  2           0  0  0
    1.3874    0.0000   -0.0000 O   0  0  0  0  0  2           0  0  0
   -0.0568   -0.4367    8.1645 O   0  0  0  0  0  2           0  0  0
   -2.0177    0.7076    8.5066 O   0  0  0  0  0  2           0  0  0
   -0.6612    0.0000    1.1790 N   0  0  0  0  0  3           0  0  0
   -2.7118   -0.0086   -0.0223 N   0  0  0  0  0  3           0  0  0
    0.0595    0.0025   -2.4107 N   0  0  0  0  0  3           0  0  0
   -2.7449    0.0062    2.3300 N   0  0  0  0  0  3           0  0  0
   -2.7865   -0.0002   -2.3752 N   0  0  0  0  0  3           0  0  0
    0.0000    0.0000    0.0000 C   0  0  0  0  0  4           0  0  0
   -2.0114   -0.0003    1.1361 C   0  0  0  0  0  4           0  0  0
   -2.0369   -0.0254   -1.1994 C   0  0  0  0  0  4           0  0  0
   -0.6429    0.0034   -1.2331 C   0  0  0  0  0  4           0  0  0
   -2.3213    0.0135    3.6611 C   0  0  0  0  0  4           0  0  0
   -1.5371    0.0707    6.3764 C   0  0  0  0  0  4           0  0  0
   -1.1177   -0.5745    4.0750 C   0  0  0  0  0  4           0  0  0
   -3.1232    0.6303    4.6335 C   0  0  0  0  0  4           0  0  0
   -0.7277   -0.5472    5.4185 C   0  0  0  0  0  4           0  0  0
   -2.7392    0.6617    5.9782 C   0  0  0  0  0  4           0  0  0
   -1.0899    0.0666    7.7650 C   0  0  0  0  0  4           0  0  0
    1.9743   -0.0000    1.3011 C   0  0  0  0  0  4           0  0  0
    3.4937    0.0000    1.1547 C   0  0  2  0  0  4           0  0  0
    3.9581    1.2455    0.3875 C   0  0  0  0  0  4           0  0  0
    3.9904   -1.2812    0.4637 C   0  0  0  0  0  4           0  0  0
    5.4720    1.2576    0.1897 C   0  0  0  0  0  4           0  0  0
    5.5043   -1.2649    0.2615 C   0  0  0  0  0  4           0  0  0
    5.9610   -0.0179   -0.4885 C   0  0  0  0  0  4           0  0  0
  1  7  2  0     0  0
  2 10  1  0     0  0
  2 21  1  0     0  0
  3 20  2  0     0  0
  4 20  1  0     0  0
  5 10  2  0     0  0
  5 11  1  0     0  0
  6 11  2  0     0  0
  6 12  1  0     0  0
  7 13  1  0     0  0
  8 11  1  0     0  0
  8 14  1  0     0  0
  9 12  1  0     0  0
 10 13  1  0     0  0
 12 13  2  0     0  0
 14 16  2  0     0  0
 14 17  1  0     0  0
 15 18  2  0     0  0
 15 19  1  0     0  0
 15 20  1  0     0  0
 16 18  1  0     0  0
 17 19  2  0     0  0
 21 22  1  0     0  0
 22 23  1  0     0  0
 22 24  1  0     0  0
 23 25  1  0     0  0
 24 26  1  0     0  0
 25 27  1  0     0  0
 26 27  1  0     0  0
M  END
> <Compound >
24

> <standard_type>
pIC50

> <# Confs.>
25

> <canonical_smiles>
O=NC(C(OCC1CCCCC1)=N2)=C(N)N=C2NC3=CC=C(C(O)=O)C=C3

> <standard_relation>
=

> <predicted_activity_value>
7.430626090384954

> <actual_activity_value>
6.958607314841775

> <Publication ID>
nan

> <standard_units>
nM

> hash
10097127070848566691

$$$$
24_
XXILIB    08252103453D 0   0.00000     0.00000

 27 29  0     1  0            999 V2000
   -0.5634   -0.5694   -3.3137 O   0  0  0  0  0  2           0  0  0
    1.3874    0.0000   -0.0000 O   0  0  0  0  0  2           0  0  0
   -0.0428    0.4875    8.1550 O   0  0  0  0  0  2           0  0  0
   -2.0058   -0.6491    8.5102 O   0  0  0  0  0  2           0  0  0
   -0.6612    0.0000    1.1790 N   0  0  0  0  0  3           0  0  0
   -2.7118   -0.0086   -0.0223 N   0  0  0  0  0  3           0  0  0
    0.0595    0.0025   -2.4107 N   0  0  0  0  0  3           0  0  0
   -2.7449    0.0062    2.3300 N   0  0  0  0  0  3           0  0  0
   -2.7865   -0.0002   -2.3752 N   0  0  0  0  0  3           0  0  0
    0.0000    0.0000    0.0000 C   0  0  0  0  0  4           0  0  0
   -2.0114   -0.0003    1.1361 C   0  0  0  0  0  4           0  0  0
   -2.0369   -0.0254   -1.1994 C   0  0  0  0  0  4           0  0  0
   -0.6429    0.0034   -1.2331 C   0  0  0  0  0  4           0  0  0
   -2.3213    0.0135    3.6611 C   0  0  0  0  0  4           0  0  0
   -1.5358   -0.0164    6.3764 C   0  0  0  0  0  4           0  0  0
   -1.1178    0.6060    4.0686 C   0  0  0  0  0  4           0  0  0
   -3.1228   -0.5934    4.6401 C   0  0  0  0  0  4           0  0  0
   -0.7272    0.5924    5.4120 C   0  0  0  0  0  4           0  0  0
   -2.7386   -0.6103    5.9850 C   0  0  0  0  0  4           0  0  0
   -1.0813   -0.0102    7.7627 C   0  0  0  0  0  4           0  0  0
    1.9743   -0.0000    1.3011 C   0  0  0  0  0  4           0  0  0
    3.4937    0.0000    1.1547 C   0  0  2  0  0  4           0  0  0
    3.9581    1.2455    0.3875 C   0  0  0  0  0  4           0  0  0
    3.9904   -1.2812    0.4637 C   0  0  0  0  0  4           0  0  0
    5.4720    1.2576    0.1897 C   0  0  0  0  0  4           0  0  0
    5.5043   -1.2649    0.2615 C   0  0  0  0  0  4           0  0  0
    5.9610   -0.0179   -0.4885 C   0  0  0  0  0  4           0  0  0
  1  7  2  0     0  0
  2 10  1  0     0  0
  2 21  1  0     0  0
  3 20  2  0     0  0
  4 20  1  0     0  0
  5 10  2  0     0  0
  5 11  1  0     0  0
  6 11  2  0     0  0
  6 12  1  0     0  0
  7 13  1  0     0  0
  8 11  1  0     0  0
  8 14  1  0     0  0
  9 12  1  0     0  0
 10 13  1  0     0  0
 12 13  2  0     0  0
 14 16  2  0     0  0
 14 17  1  0     0  0
 15 18  2  0     0  0
 15 19  1  0     0  0
 15 20  1  0     0  0
 16 18  1  0     0  0
 17 19  2  0     0  0
 21 22  1  0     0  0
 22 23  1  0     0  0
 22 24  1  0     0  0
 23 25  1  0     0  0
 24 26  1  0     0  0
 25 27  1  0     0  0
 26 27  1  0     0  0
M  END
> <Compound >
24

> <standard_type>
pIC50

> <# Confs.>
25

> <canonical_smiles>
O=NC(C(OCC1CCCCC1)=N2)=C(N)N=C2NC3=CC=C(C(O)=O)C=C3

> <standard_relation>
=

> <predicted_activity_value>
7.430626090384954

> <actual_activity_value>
6.958607314841775

> <Publication ID>
nan

> <standard_units>
nM

> hash
10097127070848566691

$$$$
24_
XXILIB    08252103453D 0   0.00000     0.00000

 27 29  0     1  0            999 V2000
   -0.5634   -0.5694   -3.3137 O   0  0  0  0  0  2           0  0  0
    1.3874    0.0000   -0.0000 O   0  0  0  0  0  2           0  0  0
   -0.0568   -0.4367    8.1645 O   0  0  0  0  0  2           0  0  0
   -2.0177    0.7076    8.5066 O   0  0  0  0  0  2           0  0  0
   -0.6612    0.0000    1.1790 N   0  0  0  0  0  3           0  0  0
   -2.7118   -0.0086   -0.0223 N   0  0  0  0  0  3           0  0  0
    0.0595    0.0025   -2.4107 N   0  0  0  0  0  3           0  0  0
   -2.7449    0.0062    2.3300 N   0  0  0  0  0  3           0  0  0
   -2.7865   -0.0002   -2.3752 N   0  0  0  0  0  3           0  0  0
    0.0000    0.0000    0.0000 C   0  0  0  0  0  4           0  0  0
   -2.0114   -0.0003    1.1361 C   0  0  0  0  0  4           0  0  0
   -2.0369   -0.0254   -1.1994 C   0  0  0  0  0  4           0  0  0
   -0.6429    0.0034   -1.2331 C   0  0  0  0  0  4           0  0  0
   -2.3213    0.0135    3.6611 C   0  0  0  0  0  4           0  0  0
   -1.5371    0.0707    6.3764 C   0  0  0  0  0  4           0  0  0
   -1.1177   -0.5745    4.0750 C   0  0  0  0  0  4           0  0  0
   -3.1232    0.6303    4.6335 C   0  0  0  0  0  4           0  0  0
   -0.7277   -0.5472    5.4185 C   0  0  0  0  0  4           0  0  0
   -2.7392    0.6617    5.9782 C   0  0  0  0  0  4           0  0  0
   -1.0899    0.0666    7.7650 C   0  0  0  0  0  4           0  0  0
    1.9743   -0.0000    1.3011 C   0  0  0  0  0  4           0  0  0
    3.4937    0.0000    1.1547 C   0  0  2  0  0  4           0  0  0
    4.0117   -1.2317    0.3903 C   0  0  0  0  0  4           0  0  0
    4.1876    0.1132    2.5204 C   0  0  0  0  0  4           0  0  0
    3.9269   -2.5196    1.2085 C   0  0  0  0  0  4           0  0  0
    4.0975   -1.1725    3.3411 C   0  0  0  0  0  4           0  0  0
    4.6213   -2.3734    2.5592 C   0  0  0  0  0  4           0  0  0
  1  7  2  0     0  0
  2 10  1  0     0  0
  2 21  1  0     0  0
  3 20  2  0     0  0
  4 20  1  0     0  0
  5 10  2  0     0  0
  5 11  1  0     0  0
  6 11  2  0     0  0
  6 12  1  0     0  0
  7 13  1  0     0  0
  8 11  1  0     0  0
  8 14  1  0     0  0
  9 12  1  0     0  0
 10 13  1  0     0  0
 12 13  2  0     0  0
 14 16  2  0     0  0
 14 17  1  0     0  0
 15 18  2  0     0  0
 15 19  1  0     0  0
 15 20  1  0     0  0
 16 18  1  0     0  0
 17 19  2  0     0  0
 21 22  1  0     0  0
 22 23  1  0     0  0
 22 24  1  0     0  0
 23 25  1  0     0  0
 24 26  1  0     0  0
 25 27  1  0     0  0
 26 27  1  0     0  0
M  END
> <Compound >
24

> <standard_type>
pIC50

> <# Confs.>
25

> <canonical_smiles>
O=NC(C(OCC1CCCCC1)=N2)=C(N)N=C2NC3=CC=C(C(O)=O)C=C3

> <standard_relation>
=

> <predicted_activity_value>
7.430626090384954

> <actual_activity_value>
6.958607314841775

> <Publication ID>
nan

> <standard_units>
nM

> hash
10097127070848566691

$$$$
24_
XXILIB    08252103453D 0   0.00000     0.00000

 27 29  0     1  0            999 V2000
   -0.5634   -0.5694   -3.3137 O   0  0  0  0  0  2           0  0  0
    1.3874    0.0000   -0.0000 O   0  0  0  0  0  2           0  0  0
   -0.0428    0.4875    8.1550 O   0  0  0  0  0  2           0  0  0
   -2.0058   -0.6491    8.5102 O   0  0  0  0  0  2           0  0  0
   -0.6612    0.0000    1.1790 N   0  0  0  0  0  3           0  0  0
   -2.7118   -0.0086   -0.0223 N   0  0  0  0  0  3           0  0  0
    0.0595    0.0025   -2.4107 N   0  0  0  0  0  3           0  0  0
   -2.7449    0.0062    2.3300 N   0  0  0  0  0  3           0  0  0
   -2.7865   -0.0002   -2.3752 N   0  0  0  0  0  3           0  0  0
    0.0000    0.0000    0.0000 C   0  0  0  0  0  4           0  0  0
   -2.0114   -0.0003    1.1361 C   0  0  0  0  0  4           0  0  0
   -2.0369   -0.0254   -1.1994 C   0  0  0  0  0  4           0  0  0
   -0.6429    0.0034   -1.2331 C   0  0  0  0  0  4           0  0  0
   -2.3213    0.0135    3.6611 C   0  0  0  0  0  4           0  0  0
   -1.5358   -0.0164    6.3764 C   0  0  0  0  0  4           0  0  0
   -1.1178    0.6060    4.0686 C   0  0  0  0  0  4           0  0  0
   -3.1228   -0.5934    4.6401 C   0  0  0  0  0  4           0  0  0
   -0.7272    0.5924    5.4120 C   0  0  0  0  0  4           0  0  0
   -2.7386   -0.6103    5.9850 C   0  0  0  0  0  4           0  0  0
   -1.0813   -0.0102    7.7627 C   0  0  0  0  0  4           0  0  0
    1.9743   -0.0000    1.3011 C   0  0  0  0  0  4           0  0  0
    3.4937    0.0000    1.1547 C   0  0  2  0  0  4           0  0  0
    4.0117   -1.2317    0.3903 C   0  0  0  0  0  4           0  0  0
    4.1876    0.1132    2.5204 C   0  0  0  0  0  4           0  0  0
    3.9269   -2.5196    1.2085 C   0  0  0  0  0  4           0  0  0
    4.0975   -1.1725    3.3411 C   0  0  0  0  0  4           0  0  0
    4.6213   -2.3734    2.5592 C   0  0  0  0  0  4           0  0  0
  1  7  2  0     0  0
  2 10  1  0     0  0
  2 21  1  0     0  0
  3 20  2  0     0  0
  4 20  1  0     0  0
  5 10  2  0     0  0
  5 11  1  0     0  0
  6 11  2  0     0  0
  6 12  1  0     0  0
  7 13  1  0     0  0
  8 11  1  0     0  0
  8 14  1  0     0  0
  9 12  1  0     0  0
 10 13  1  0     0  0
 12 13  2  0     0  0
 14 16  2  0     0  0
 14 17  1  0     0  0
 15 18  2  0     0  0
 15 19  1  0     0  0
 15 20  1  0     0  0
 16 18  1  0     0  0
 17 19  2  0     0  0
 21 22  1  0     0  0
 22 23  1  0     0  0
 22 24  1  0     0  0
 23 25  1  0     0  0
 24 26  1  0     0  0
 25 27  1  0     0  0
 26 27  1  0     0  0
M  END
> <Compound >
24

> <standard_type>
pIC50

> <# Confs.>
25

> <canonical_smiles>
O=NC(C(OCC1CCCCC1)=N2)=C(N)N=C2NC3=CC=C(C(O)=O)C=C3

> <standard_relation>
=

> <predicted_activity_value>
7.430626090384954

> <actual_activity_value>
6.958607314841775

> <Publication ID>
nan

> <standard_units>
nM

> hash
10097127070848566691

$$$$
24_
XXILIB    08252103453D 0   0.00000     0.00000

 27 29  0     1  0            999 V2000
   -0.5634   -0.5694   -3.3137 O   0  0  0  0  0  2           0  0  0
    1.3874    0.0000   -0.0000 O   0  0  0  0  0  2           0  0  0
   -1.5823   -0.4085    8.6498 O   0  0  0  0  0  2           0  0  0
    0.2214    0.7253    7.7940 O   0  0  0  0  0  2           0  0  0
   -0.6612    0.0000    1.1790 N   0  0  0  0  0  3           0  0  0
   -2.7118   -0.0086   -0.0223 N   0  0  0  0  0  3           0  0  0
    0.0595    0.0025   -2.4107 N   0  0  0  0  0  3           0  0  0
   -2.7449    0.0062    2.3300 N   0  0  0  0  0  3           0  0  0
   -2.7865   -0.0002   -2.3752 N   0  0  0  0  0  3           0  0  0
    0.0000    0.0000    0.0000 C   0  0  0  0  0  4           0  0  0
   -2.0114   -0.0003    1.1361 C   0  0  0  0  0  4           0  0  0
   -2.0369   -0.0254   -1.1994 C   0  0  0  0  0  4           0  0  0
   -0.6429    0.0034   -1.2331 C   0  0  0  0  0  4           0  0  0
   -2.3213    0.0135    3.6611 C   0  0  0  0  0  4           0  0  0
   -1.3933    0.0729    6.3306 C   0  0  0  0  0  4           0  0  0
   -3.0662   -0.5712    4.6950 C   0  0  0  0  0  4           0  0  0
   -1.1034    0.6275    3.9908 C   0  0  0  0  0  4           0  0  0
   -2.6086   -0.5429    6.0170 C   0  0  0  0  0  4           0  0  0
   -0.6398    0.6591    5.3101 C   0  0  0  0  0  4           0  0  0
   -0.9631    0.0820    7.7246 C   0  0  0  0  0  4           0  0  0
    1.9743   -0.0000    1.3011 C   0  0  0  0  0  4           0  0  0
    3.4937    0.0000    1.1547 C   0  0  2  0  0  4           0  0  0
    4.1651   -0.0000    2.5347 C   0  0  0  0  0  4           0  0  0
    3.9760    1.1950    0.3150 C   0  0  0  0  0  4           0  0  0
    5.6874    0.0386    2.4245 C   0  0  0  0  0  4           0  0  0
    5.4994    1.2353    0.2105 C   0  0  0  0  0  4           0  0  0
    6.1609    1.2204    1.5847 C   0  0  0  0  0  4           0  0  0
  1  7  2  0     0  0
  2 10  1  0     0  0
  2 21  1  0     0  0
  3 20  2  0     0  0
  4 20  1  0     0  0
  5 10  2  0     0  0
  5 11  1  0     0  0
  6 11  2  0     0  0
  6 12  1  0     0  0
  7 13  1  0     0  0
  8 11  1  0     0  0
  8 14  1  0     0  0
  9 12  1  0     0  0
 10 13  1  0     0  0
 12 13  2  0     0  0
 14 16  2  0     0  0
 14 17  1  0     0  0
 15 18  2  0     0  0
 15 19  1  0     0  0
 15 20  1  0     0  0
 16 18  1  0     0  0
 17 19  2  0     0  0
 21 22  1  0     0  0
 22 23  1  0     0  0
 22 24  1  0     0  0
 23 25  1  0     0  0
 24 26  1  0     0  0
 25 27  1  0     0  0
 26 27  1  0     0  0
M  END
> <Compound >
24

> <standard_type>
pIC50

> <# Confs.>
25

> <canonical_smiles>
O=NC(C(OCC1CCCCC1)=N2)=C(N)N=C2NC3=CC=C(C(O)=O)C=C3

> <standard_relation>
=

> <predicted_activity_value>
7.430626090384954

> <actual_activity_value>
6.958607314841775

> <Publication ID>
nan

> <standard_units>
nM

> hash
10097127070848566691

$$$$
24_
XXILIB    08252103453D 0   0.00000     0.00000

 27 29  0     1  0            999 V2000
   -0.5634   -0.5694   -3.3137 O   0  0  0  0  0  2           0  0  0
    1.3874    0.0000   -0.0000 O   0  0  0  0  0  2           0  0  0
   -1.5683    0.5157    8.6403 O   0  0  0  0  0  2           0  0  0
    0.2333   -0.6313    7.7976 O   0  0  0  0  0  2           0  0  0
   -0.6612    0.0000    1.1790 N   0  0  0  0  0  3           0  0  0
   -2.7118   -0.0086   -0.0223 N   0  0  0  0  0  3           0  0  0
    0.0595    0.0025   -2.4107 N   0  0  0  0  0  3           0  0  0
   -2.7449    0.0062    2.3300 N   0  0  0  0  0  3           0  0  0
   -2.7865   -0.0002   -2.3752 N   0  0  0  0  0  3           0  0  0
    0.0000    0.0000    0.0000 C   0  0  0  0  0  4           0  0  0
   -2.0114   -0.0003    1.1361 C   0  0  0  0  0  4           0  0  0
   -2.0369   -0.0254   -1.1994 C   0  0  0  0  0  4           0  0  0
   -0.6429    0.0034   -1.2331 C   0  0  0  0  0  4           0  0  0
   -2.3213    0.0135    3.6611 C   0  0  0  0  0  4           0  0  0
   -1.3920   -0.0142    6.3306 C   0  0  0  0  0  4           0  0  0
   -3.0662    0.6093    4.6886 C   0  0  0  0  0  4           0  0  0
   -1.1030   -0.5962    3.9974 C   0  0  0  0  0  4           0  0  0
   -2.6081    0.5967    6.0105 C   0  0  0  0  0  4           0  0  0
   -0.6392   -0.6129    5.3169 C   0  0  0  0  0  4           0  0  0
   -0.9545    0.0051    7.7223 C   0  0  0  0  0  4           0  0  0
    1.9743   -0.0000    1.3011 C   0  0  0  0  0  4           0  0  0
    3.4937    0.0000    1.1547 C   0  0  2  0  0  4           0  0  0
    4.1651   -0.0000    2.5347 C   0  0  0  0  0  4           0  0  0
    3.9760    1.1950    0.3150 C   0  0  0  0  0  4           0  0  0
    5.6874    0.0386    2.4245 C   0  0  0  0  0  4           0  0  0
    5.4994    1.2353    0.2105 C   0  0  0  0  0  4           0  0  0
    6.1609    1.2204    1.5847 C   0  0  0  0  0  4           0  0  0
  1  7  2  0     0  0
  2 10  1  0     0  0
  2 21  1  0     0  0
  3 20  2  0     0  0
  4 20  1  0     0  0
  5 10  2  0     0  0
  5 11  1  0     0  0
  6 11  2  0     0  0
  6 12  1  0     0  0
  7 13  1  0     0  0
  8 11  1  0     0  0
  8 14  1  0     0  0
  9 12  1  0     0  0
 10 13  1  0     0  0
 12 13  2  0     0  0
 14 16  2  0     0  0
 14 17  1  0     0  0
 15 18  2  0     0  0
 15 19  1  0     0  0
 15 20  1  0     0  0
 16 18  1  0     0  0
 17 19  2  0     0  0
 21 22  1  0     0  0
 22 23  1  0     0  0
 22 24  1  0     0  0
 23 25  1  0     0  0
 24 26  1  0     0  0
 25 27  1  0     0  0
 26 27  1  0     0  0
M  END
> <Compound >
24

> <standard_type>
pIC50

> <# Confs.>
25

> <canonical_smiles>
O=NC(C(OCC1CCCCC1)=N2)=C(N)N=C2NC3=CC=C(C(O)=O)C=C3

> <standard_relation>
=

> <predicted_activity_value>
7.430626090384954

> <actual_activity_value>
6.958607314841775

> <Publication ID>
nan

> <standard_units>
nM

> hash
10097127070848566691

$$$$
24_
XXILIB    08252103453D 0   0.00000     0.00000

 27 29  0     1  0            999 V2000
   -0.5634   -0.5694   -3.3137 O   0  0  0  0  0  2           0  0  0
    1.3874    0.0000   -0.0000 O   0  0  0  0  0  2           0  0  0
   -1.5683    0.5157    8.6403 O   0  0  0  0  0  2           0  0  0
    0.2333   -0.6313    7.7976 O   0  0  0  0  0  2           0  0  0
   -0.6612    0.0000    1.1790 N   0  0  0  0  0  3           0  0  0
   -2.7118   -0.0086   -0.0223 N   0  0  0  0  0  3           0  0  0
    0.0595    0.0025   -2.4107 N   0  0  0  0  0  3           0  0  0
   -2.7449    0.0062    2.3300 N   0  0  0  0  0  3           0  0  0
   -2.7865   -0.0002   -2.3752 N   0  0  0  0  0  3           0  0  0
    0.0000    0.0000    0.0000 C   0  0  0  0  0  4           0  0  0
   -2.0114   -0.0003    1.1361 C   0  0  0  0  0  4           0  0  0
   -2.0369   -0.0254   -1.1994 C   0  0  0  0  0  4           0  0  0
   -0.6429    0.0034   -1.2331 C   0  0  0  0  0  4           0  0  0
   -2.3213    0.0135    3.6611 C   0  0  0  0  0  4           0  0  0
   -1.3920   -0.0142    6.3306 C   0  0  0  0  0  4           0  0  0
   -3.0662    0.6093    4.6886 C   0  0  0  0  0  4           0  0  0
   -1.1030   -0.5962    3.9974 C   0  0  0  0  0  4           0  0  0
   -2.6081    0.5967    6.0105 C   0  0  0  0  0  4           0  0  0
   -0.6392   -0.6129    5.3169 C   0  0  0  0  0  4           0  0  0
   -0.9545    0.0051    7.7223 C   0  0  0  0  0  4           0  0  0
    1.9743   -0.0000    1.3011 C   0  0  0  0  0  4           0  0  0
    3.4937    0.0000    1.1547 C   0  0  2  0  0  4           0  0  0
    3.9581   -1.2455    0.3875 C   0  0  0  0  0  4           0  0  0
    4.1890    0.0862    2.5239 C   0  0  0  0  0  4           0  0  0
    5.4784   -1.2963    0.2563 C   0  0  0  0  0  4           0  0  0
    5.7096    0.0296    2.3912 C   0  0  0  0  0  4           0  0  0
    6.1639   -1.2025    1.6154 C   0  0  0  0  0  4           0  0  0
  1  7  2  0     0  0
  2 10  1  0     0  0
  2 21  1  0     0  0
  3 20  2  0     0  0
  4 20  1  0     0  0
  5 10  2  0     0  0
  5 11  1  0     0  0
  6 11  2  0     0  0
  6 12  1  0     0  0
  7 13  1  0     0  0
  8 11  1  0     0  0
  8 14  1  0     0  0
  9 12  1  0     0  0
 10 13  1  0     0  0
 12 13  2  0     0  0
 14 16  2  0     0  0
 14 17  1  0     0  0
 15 18  2  0     0  0
 15 19  1  0     0  0
 15 20  1  0     0  0
 16 18  1  0     0  0
 17 19  2  0     0  0
 21 22  1  0     0  0
 22 23  1  0     0  0
 22 24  1  0     0  0
 23 25  1  0     0  0
 24 26  1  0     0  0
 25 27  1  0     0  0
 26 27  1  0     0  0
M  END
> <Compound >
24

> <standard_type>
pIC50

> <# Confs.>
25

> <canonical_smiles>
O=NC(C(OCC1CCCCC1)=N2)=C(N)N=C2NC3=CC=C(C(O)=O)C=C3

> <standard_relation>
=

> <predicted_activity_value>
7.430626090384954

> <actual_activity_value>
6.958607314841775

> <Publication ID>
nan

> <standard_units>
nM

> hash
10097127070848566691

$$$$
24_
XXILIB    08252103453D 0   0.00000     0.00000

 27 29  0     1  0            999 V2000
   -0.5634   -0.5694   -3.3137 O   0  0  0  0  0  2           0  0  0
    1.3874    0.0000   -0.0000 O   0  0  0  0  0  2           0  0  0
   -1.5823   -0.4085    8.6498 O   0  0  0  0  0  2           0  0  0
    0.2214    0.7253    7.7940 O   0  0  0  0  0  2           0  0  0
   -0.6612    0.0000    1.1790 N   0  0  0  0  0  3           0  0  0
   -2.7118   -0.0086   -0.0223 N   0  0  0  0  0  3           0  0  0
    0.0595    0.0025   -2.4107 N   0  0  0  0  0  3           0  0  0
   -2.7449    0.0062    2.3300 N   0  0  0  0  0  3           0  0  0
   -2.7865   -0.0002   -2.3752 N   0  0  0  0  0  3           0  0  0
    0.0000    0.0000    0.0000 C   0  0  0  0  0  4           0  0  0
   -2.0114   -0.0003    1.1361 C   0  0  0  0  0  4           0  0  0
   -2.0369   -0.0254   -1.1994 C   0  0  0  0  0  4           0  0  0
   -0.6429    0.0034   -1.2331 C   0  0  0  0  0  4           0  0  0
   -2.3213    0.0135    3.6611 C   0  0  0  0  0  4           0  0  0
   -1.3933    0.0729    6.3306 C   0  0  0  0  0  4           0  0  0
   -3.0662   -0.5712    4.6950 C   0  0  0  0  0  4           0  0  0
   -1.1034    0.6275    3.9908 C   0  0  0  0  0  4           0  0  0
   -2.6086   -0.5429    6.0170 C   0  0  0  0  0  4           0  0  0
   -0.6398    0.6591    5.3101 C   0  0  0  0  0  4           0  0  0
   -0.9631    0.0820    7.7246 C   0  0  0  0  0  4           0  0  0
    1.9743   -0.0000    1.3011 C   0  0  0  0  0  4           0  0  0
    3.4937    0.0000    1.1547 C   0  0  2  0  0  4           0  0  0
    3.9581   -1.2455    0.3875 C   0  0  0  0  0  4           0  0  0
    4.1890    0.0862    2.5239 C   0  0  0  0  0  4           0  0  0
    5.4784   -1.2963    0.2563 C   0  0  0  0  0  4           0  0  0
    5.7096    0.0296    2.3912 C   0  0  0  0  0  4           0  0  0
    6.1639   -1.2025    1.6154 C   0  0  0  0  0  4           0  0  0
  1  7  2  0     0  0
  2 10  1  0     0  0
  2 21  1  0     0  0
  3 20  2  0     0  0
  4 20  1  0     0  0
  5 10  2  0     0  0
  5 11  1  0     0  0
  6 11  2  0     0  0
  6 12  1  0     0  0
  7 13  1  0     0  0
  8 11  1  0     0  0
  8 14  1  0     0  0
  9 12  1  0     0  0
 10 13  1  0     0  0
 12 13  2  0     0  0
 14 16  2  0     0  0
 14 17  1  0     0  0
 15 18  2  0     0  0
 15 19  1  0     0  0
 15 20  1  0     0  0
 16 18  1  0     0  0
 17 19  2  0     0  0
 21 22  1  0     0  0
 22 23  1  0     0  0
 22 24  1  0     0  0
 23 25  1  0     0  0
 24 26  1  0     0  0
 25 27  1  0     0  0
 26 27  1  0     0  0
M  END
> <Compound >
24

> <standard_type>
pIC50

> <# Confs.>
25

> <canonical_smiles>
O=NC(C(OCC1CCCCC1)=N2)=C(N)N=C2NC3=CC=C(C(O)=O)C=C3

> <standard_relation>
=

> <predicted_activity_value>
7.430626090384954

> <actual_activity_value>
6.958607314841775

> <Publication ID>
nan

> <standard_units>
nM

> hash
10097127070848566691

$$$$
24_
XXILIB    08252103453D 0   0.00000     0.00000

 27 29  0     1  0            999 V2000
   -0.5634   -0.5694   -3.3137 O   0  0  0  0  0  2           0  0  0
    1.3874    0.0000   -0.0000 O   0  0  0  0  0  2           0  0  0
   -0.0428    0.4875    8.1550 O   0  0  0  0  0  2           0  0  0
   -2.0058   -0.6491    8.5102 O   0  0  0  0  0  2           0  0  0
   -0.6612    0.0000    1.1790 N   0  0  0  0  0  3           0  0  0
   -2.7118   -0.0086   -0.0223 N   0  0  0  0  0  3           0  0  0
    0.0595    0.0025   -2.4107 N   0  0  0  0  0  3           0  0  0
   -2.7449    0.0062    2.3300 N   0  0  0  0  0  3           0  0  0
   -2.7865   -0.0002   -2.3752 N   0  0  0  0  0  3           0  0  0
    0.0000    0.0000    0.0000 C   0  0  0  0  0  4           0  0  0
   -2.0114   -0.0003    1.1361 C   0  0  0  0  0  4           0  0  0
   -2.0369   -0.0254   -1.1994 C   0  0  0  0  0  4           0  0  0
   -0.6429    0.0034   -1.2331 C   0  0  0  0  0  4           0  0  0
   -2.3213    0.0135    3.6611 C   0  0  0  0  0  4           0  0  0
   -1.5358   -0.0164    6.3764 C   0  0  0  0  0  4           0  0  0
   -1.1178    0.6060    4.0686 C   0  0  0  0  0  4           0  0  0
   -3.1228   -0.5934    4.6401 C   0  0  0  0  0  4           0  0  0
   -0.7272    0.5924    5.4120 C   0  0  0  0  0  4           0  0  0
   -2.7386   -0.6103    5.9850 C   0  0  0  0  0  4           0  0  0
   -1.0813   -0.0102    7.7627 C   0  0  0  0  0  4           0  0  0
    1.9743   -0.0000    1.3011 C   0  0  0  0  0  4           0  0  0
    3.4937    0.0000    1.1547 C   0  0  2  0  0  4           0  0  0
    4.2164   -0.0000    2.5138 C   0  0  0  0  0  4           0  0  0
    3.9729    1.1784    0.2936 C   0  0  0  0  0  4           0  0  0
    4.1226    1.3422    3.2384 C   0  0  0  0  0  4           0  0  0
    3.8733    2.5212    1.0159 C   0  0  0  0  0  4           0  0  0
    4.6017    2.4912    2.3562 C   0  0  0  0  0  4           0  0  0
  1  7  2  0     0  0
  2 10  1  0     0  0
  2 21  1  0     0  0
  3 20  2  0     0  0
  4 20  1  0     0  0
  5 10  2  0     0  0
  5 11  1  0     0  0
  6 11  2  0     0  0
  6 12  1  0     0  0
  7 13  1  0     0  0
  8 11  1  0     0  0
  8 14  1  0     0  0
  9 12  1  0     0  0
 10 13  1  0     0  0
 12 13  2  0     0  0
 14 16  2  0     0  0
 14 17  1  0     0  0
 15 18  2  0     0  0
 15 19  1  0     0  0
 15 20  1  0     0  0
 16 18  1  0     0  0
 17 19  2  0     0  0
 21 22  1  0     0  0
 22 23  1  0     0  0
 22 24  1  0     0  0
 23 25  1  0     0  0
 24 26  1  0     0  0
 25 27  1  0     0  0
 26 27  1  0     0  0
M  END
> <Compound >
24

> <standard_type>
pIC50

> <# Confs.>
25

> <canonical_smiles>
O=NC(C(OCC1CCCCC1)=N2)=C(N)N=C2NC3=CC=C(C(O)=O)C=C3

> <standard_relation>
=

> <predicted_activity_value>
7.430626090384954

> <actual_activity_value>
6.958607314841775

> <Publication ID>
nan

> <standard_units>
nM

> hash
10097127070848566691

$$$$
24_
XXILIB    08252103453D 0   0.00000     0.00000

 27 29  0     1  0            999 V2000
   -0.5634   -0.5694   -3.3137 O   0  0  0  0  0  2           0  0  0
    1.3874    0.0000   -0.0000 O   0  0  0  0  0  2           0  0  0
   -0.0568   -0.4367    8.1645 O   0  0  0  0  0  2           0  0  0
   -2.0177    0.7076    8.5066 O   0  0  0  0  0  2           0  0  0
   -0.6612    0.0000    1.1790 N   0  0  0  0  0  3           0  0  0
   -2.7118   -0.0086   -0.0223 N   0  0  0  0  0  3           0  0  0
    0.0595    0.0025   -2.4107 N   0  0  0  0  0  3           0  0  0
   -2.7449    0.0062    2.3300 N   0  0  0  0  0  3           0  0  0
   -2.7865   -0.0002   -2.3752 N   0  0  0  0  0  3           0  0  0
    0.0000    0.0000    0.0000 C   0  0  0  0  0  4           0  0  0
   -2.0114   -0.0003    1.1361 C   0  0  0  0  0  4           0  0  0
   -2.0369   -0.0254   -1.1994 C   0  0  0  0  0  4           0  0  0
   -0.6429    0.0034   -1.2331 C   0  0  0  0  0  4           0  0  0
   -2.3213    0.0135    3.6611 C   0  0  0  0  0  4           0  0  0
   -1.5371    0.0707    6.3764 C   0  0  0  0  0  4           0  0  0
   -1.1177   -0.5745    4.0750 C   0  0  0  0  0  4           0  0  0
   -3.1232    0.6303    4.6335 C   0  0  0  0  0  4           0  0  0
   -0.7277   -0.5472    5.4185 C   0  0  0  0  0  4           0  0  0
   -2.7392    0.6617    5.9782 C   0  0  0  0  0  4           0  0  0
   -1.0899    0.0666    7.7650 C   0  0  0  0  0  4           0  0  0
    1.9743   -0.0000    1.3011 C   0  0  0  0  0  4           0  0  0
    3.4937    0.0000    1.1547 C   0  0  2  0  0  4           0  0  0
    4.2164   -0.0000    2.5138 C   0  0  0  0  0  4           0  0  0
    3.9729    1.1784    0.2936 C   0  0  0  0  0  4           0  0  0
    4.1226    1.3422    3.2384 C   0  0  0  0  0  4           0  0  0
    3.8733    2.5212    1.0159 C   0  0  0  0  0  4           0  0  0
    4.6017    2.4912    2.3562 C   0  0  0  0  0  4           0  0  0
  1  7  2  0     0  0
  2 10  1  0     0  0
  2 21  1  0     0  0
  3 20  2  0     0  0
  4 20  1  0     0  0
  5 10  2  0     0  0
  5 11  1  0     0  0
  6 11  2  0     0  0
  6 12  1  0     0  0
  7 13  1  0     0  0
  8 11  1  0     0  0
  8 14  1  0     0  0
  9 12  1  0     0  0
 10 13  1  0     0  0
 12 13  2  0     0  0
 14 16  2  0     0  0
 14 17  1  0     0  0
 15 18  2  0     0  0
 15 19  1  0     0  0
 15 20  1  0     0  0
 16 18  1  0     0  0
 17 19  2  0     0  0
 21 22  1  0     0  0
 22 23  1  0     0  0
 22 24  1  0     0  0
 23 25  1  0     0  0
 24 26  1  0     0  0
 25 27  1  0     0  0
 26 27  1  0     0  0
M  END
> <Compound >
24

> <standard_type>
pIC50

> <# Confs.>
25

> <canonical_smiles>
O=NC(C(OCC1CCCCC1)=N2)=C(N)N=C2NC3=CC=C(C(O)=O)C=C3

> <standard_relation>
=

> <predicted_activity_value>
7.430626090384954

> <actual_activity_value>
6.958607314841775

> <Publication ID>
nan

> <standard_units>
nM

> hash
10097127070848566691

$$$$
24_
XXILIB    08252103453D 0   0.00000     0.00000

 27 29  0     1  0            999 V2000
   -0.5634   -0.5694   -3.3137 O   0  0  0  0  0  2           0  0  0
    1.3874    0.0000   -0.0000 O   0  0  0  0  0  2           0  0  0
   -1.5823   -0.4085    8.6498 O   0  0  0  0  0  2           0  0  0
    0.2214    0.7253    7.7940 O   0  0  0  0  0  2           0  0  0
   -0.6612    0.0000    1.1790 N   0  0  0  0  0  3           0  0  0
   -2.7118   -0.0086   -0.0223 N   0  0  0  0  0  3           0  0  0
    0.0595    0.0025   -2.4107 N   0  0  0  0  0  3           0  0  0
   -2.7449    0.0062    2.3300 N   0  0  0  0  0  3           0  0  0
   -2.7865   -0.0002   -2.3752 N   0  0  0  0  0  3           0  0  0
    0.0000    0.0000    0.0000 C   0  0  0  0  0  4           0  0  0
   -2.0114   -0.0003    1.1361 C   0  0  0  0  0  4           0  0  0
   -2.0369   -0.0254   -1.1994 C   0  0  0  0  0  4           0  0  0
   -0.6429    0.0034   -1.2331 C   0  0  0  0  0  4           0  0  0
   -2.3213    0.0135    3.6611 C   0  0  0  0  0  4           0  0  0
   -1.3933    0.0729    6.3306 C   0  0  0  0  0  4           0  0  0
   -3.0662   -0.5712    4.6950 C   0  0  0  0  0  4           0  0  0
   -1.1034    0.6275    3.9908 C   0  0  0  0  0  4           0  0  0
   -2.6086   -0.5429    6.0170 C   0  0  0  0  0  4           0  0  0
   -0.6398    0.6591    5.3101 C   0  0  0  0  0  4           0  0  0
   -0.9631    0.0820    7.7246 C   0  0  0  0  0  4           0  0  0
    1.9743   -0.0000    1.3011 C   0  0  0  0  0  4           0  0  0
    3.4937    0.0000    1.1547 C   0  0  2  0  0  4           0  0  0
    3.9581    1.2455    0.3875 C   0  0  0  0  0  4           0  0  0
    3.9904   -1.2812    0.4637 C   0  0  0  0  0  4           0  0  0
    5.4720    1.2576    0.1897 C   0  0  0  0  0  4           0  0  0
    5.5043   -1.2649    0.2615 C   0  0  0  0  0  4           0  0  0
    5.9610   -0.0179   -0.4885 C   0  0  0  0  0  4           0  0  0
  1  7  2  0     0  0
  2 10  1  0     0  0
  2 21  1  0     0  0
  3 20  2  0     0  0
  4 20  1  0     0  0
  5 10  2  0     0  0
  5 11  1  0     0  0
  6 11  2  0     0  0
  6 12  1  0     0  0
  7 13  1  0     0  0
  8 11  1  0     0  0
  8 14  1  0     0  0
  9 12  1  0     0  0
 10 13  1  0     0  0
 12 13  2  0     0  0
 14 16  2  0     0  0
 14 17  1  0     0  0
 15 18  2  0     0  0
 15 19  1  0     0  0
 15 20  1  0     0  0
 16 18  1  0     0  0
 17 19  2  0     0  0
 21 22  1  0     0  0
 22 23  1  0     0  0
 22 24  1  0     0  0
 23 25  1  0     0  0
 24 26  1  0     0  0
 25 27  1  0     0  0
 26 27  1  0     0  0
M  END
> <Compound >
24

> <standard_type>
pIC50

> <# Confs.>
25

> <canonical_smiles>
O=NC(C(OCC1CCCCC1)=N2)=C(N)N=C2NC3=CC=C(C(O)=O)C=C3

> <standard_relation>
=

> <predicted_activity_value>
7.430626090384954

> <actual_activity_value>
6.958607314841775

> <Publication ID>
nan

> <standard_units>
nM

> hash
10097127070848566691

$$$$
24_
XXILIB    08252103453D 0   0.00000     0.00000

 27 29  0     1  0            999 V2000
   -0.5634   -0.5694   -3.3137 O   0  0  0  0  0  2           0  0  0
    1.3874    0.0000   -0.0000 O   0  0  0  0  0  2           0  0  0
   -1.5683    0.5157    8.6403 O   0  0  0  0  0  2           0  0  0
    0.2333   -0.6313    7.7976 O   0  0  0  0  0  2           0  0  0
   -0.6612    0.0000    1.1790 N   0  0  0  0  0  3           0  0  0
   -2.7118   -0.0086   -0.0223 N   0  0  0  0  0  3           0  0  0
    0.0595    0.0025   -2.4107 N   0  0  0  0  0  3           0  0  0
   -2.7449    0.0062    2.3300 N   0  0  0  0  0  3           0  0  0
   -2.7865   -0.0002   -2.3752 N   0  0  0  0  0  3           0  0  0
    0.0000    0.0000    0.0000 C   0  0  0  0  0  4           0  0  0
   -2.0114   -0.0003    1.1361 C   0  0  0  0  0  4           0  0  0
   -2.0369   -0.0254   -1.1994 C   0  0  0  0  0  4           0  0  0
   -0.6429    0.0034   -1.2331 C   0  0  0  0  0  4           0  0  0
   -2.3213    0.0135    3.6611 C   0  0  0  0  0  4           0  0  0
   -1.3920   -0.0142    6.3306 C   0  0  0  0  0  4           0  0  0
   -3.0662    0.6093    4.6886 C   0  0  0  0  0  4           0  0  0
   -1.1030   -0.5962    3.9974 C   0  0  0  0  0  4           0  0  0
   -2.6081    0.5967    6.0105 C   0  0  0  0  0  4           0  0  0
   -0.6392   -0.6129    5.3169 C   0  0  0  0  0  4           0  0  0
   -0.9545    0.0051    7.7223 C   0  0  0  0  0  4           0  0  0
    1.9743   -0.0000    1.3011 C   0  0  0  0  0  4           0  0  0
    3.4937    0.0000    1.1547 C   0  0  2  0  0  4           0  0  0
    3.9581    1.2455    0.3875 C   0  0  0  0  0  4           0  0  0
    3.9904   -1.2812    0.4637 C   0  0  0  0  0  4           0  0  0
    5.4720    1.2576    0.1897 C   0  0  0  0  0  4           0  0  0
    5.5043   -1.2649    0.2615 C   0  0  0  0  0  4           0  0  0
    5.9610   -0.0179   -0.4885 C   0  0  0  0  0  4           0  0  0
  1  7  2  0     0  0
  2 10  1  0     0  0
  2 21  1  0     0  0
  3 20  2  0     0  0
  4 20  1  0     0  0
  5 10  2  0     0  0
  5 11  1  0     0  0
  6 11  2  0     0  0
  6 12  1  0     0  0
  7 13  1  0     0  0
  8 11  1  0     0  0
  8 14  1  0     0  0
  9 12  1  0     0  0
 10 13  1  0     0  0
 12 13  2  0     0  0
 14 16  2  0     0  0
 14 17  1  0     0  0
 15 18  2  0     0  0
 15 19  1  0     0  0
 15 20  1  0     0  0
 16 18  1  0     0  0
 17 19  2  0     0  0
 21 22  1  0     0  0
 22 23  1  0     0  0
 22 24  1  0     0  0
 23 25  1  0     0  0
 24 26  1  0     0  0
 25 27  1  0     0  0
 26 27  1  0     0  0
M  END
> <Compound >
24

> <standard_type>
pIC50

> <# Confs.>
25

> <canonical_smiles>
O=NC(C(OCC1CCCCC1)=N2)=C(N)N=C2NC3=CC=C(C(O)=O)C=C3

> <standard_relation>
=

> <predicted_activity_value>
7.430626090384954

> <actual_activity_value>
6.958607314841775

> <Publication ID>
nan

> <standard_units>
nM

> hash
10097127070848566691

$$$$
24_
XXILIB    08252103453D 0   0.00000     0.00000

 27 29  0     1  0            999 V2000
   -0.5634   -0.5694   -3.3137 O   0  0  0  0  0  2           0  0  0
    1.3874    0.0000   -0.0000 O   0  0  0  0  0  2           0  0  0
   -9.1622    0.4820    2.5653 O   0  0  0  0  0  2           0  0  0
   -8.5867   -0.6500    4.4781 O   0  0  0  0  0  2           0  0  0
   -0.6612    0.0000    1.1790 N   0  0  0  0  0  3           0  0  0
   -2.7118   -0.0086   -0.0223 N   0  0  0  0  0  3           0  0  0
    0.0595    0.0025   -2.4107 N   0  0  0  0  0  3           0  0  0
   -2.7449    0.0062    2.3300 N   0  0  0  0  0  3           0  0  0
   -2.7865   -0.0002   -2.3752 N   0  0  0  0  0  3           0  0  0
    0.0000   -0.0000    0.0000 C   0  0  0  0  0  4           0  0  0
   -2.0114   -0.0003    1.1361 C   0  0  0  0  0  4           0  0  0
   -2.0369   -0.0254   -1.1994 C   0  0  0  0  0  4           0  0  0
   -0.6429    0.0034   -1.2331 C   0  0  0  0  0  4           0  0  0
   -4.1237    0.0073    2.5537 C   0  0  0  0  0  4           0  0  0
   -6.9005   -0.0323    3.0817 C   0  0  0  0  0  4           0  0  0
   -5.0341    0.5927    1.6625 C   0  0  0  0  0  4           0  0  0
   -4.6318   -0.5979    3.7133 C   0  0  0  0  0  4           0  0  0
   -6.4089    0.5741    1.9219 C   0  0  0  0  0  4           0  0  0
   -6.0049   -0.6205    3.9787 C   0  0  0  0  0  4           0  0  0
   -8.3414   -0.0194    3.3102 C   0  0  0  0  0  4           0  0  0
    1.9743   -0.0000    1.3011 C   0  0  0  0  0  4           0  0  0
    3.4937    0.0000    1.1547 C   0  0  2  0  0  4           0  0  0
    4.1651   -0.0000    2.5347 C   0  0  0  0  0  4           0  0  0
    3.9760    1.1950    0.3150 C   0  0  0  0  0  4           0  0  0
    5.6874    0.0386    2.4245 C   0  0  0  0  0  4           0  0  0
    5.4994    1.2353    0.2105 C   0  0  0  0  0  4           0  0  0
    6.1609    1.2204    1.5847 C   0  0  0  0  0  4           0  0  0
  1  7  2  0     0  0
  2 10  1  0     0  0
  2 21  1  0     0  0
  3 20  2  0     0  0
  4 20  1  0     0  0
  5 10  2  0     0  0
  5 11  1  0     0  0
  6 11  2  0     0  0
  6 12  1  0     0  0
  7 13  1  0     0  0
  8 11  1  0     0  0
  8 14  1  0     0  0
  9 12  1  0     0  0
 10 13  1  0     0  0
 12 13  2  0     0  0
 14 16  2  0     0  0
 14 17  1  0     0  0
 15 18  2  0     0  0
 15 19  1  0     0  0
 15 20  1  0     0  0
 16 18  1  0     0  0
 17 19  2  0     0  0
 21 22  1  0     0  0
 22 23  1  0     0  0
 22 24  1  0     0  0
 23 25  1  0     0  0
 24 26  1  0     0  0
 25 27  1  0     0  0
 26 27  1  0     0  0
M  END
> <Compound >
24

> <standard_type>
pIC50

> <# Confs.>
25

> <canonical_smiles>
O=NC(C(OCC1CCCCC1)=N2)=C(N)N=C2NC3=CC=C(C(O)=O)C=C3

> <standard_relation>
=

> <predicted_activity_value>
7.430626090384954

> <actual_activity_value>
6.958607314841775

> <Publication ID>
nan

> <standard_units>
nM

> hash
10097127070848566691

$$$$
24_
XXILIB    08252103453D 0   0.00000     0.00000

 27 29  0     1  0            999 V2000
   -0.5634   -0.5694   -3.3137 O   0  0  0  0  0  2           0  0  0
    1.3874    0.0000   -0.0000 O   0  0  0  0  0  2           0  0  0
   -9.1622    0.4820    2.5653 O   0  0  0  0  0  2           0  0  0
   -8.5867   -0.6500    4.4781 O   0  0  0  0  0  2           0  0  0
   -0.6612    0.0000    1.1790 N   0  0  0  0  0  3           0  0  0
   -2.7118   -0.0086   -0.0223 N   0  0  0  0  0  3           0  0  0
    0.0595    0.0025   -2.4107 N   0  0  0  0  0  3           0  0  0
   -2.7449    0.0062    2.3300 N   0  0  0  0  0  3           0  0  0
   -2.7865   -0.0002   -2.3752 N   0  0  0  0  0  3           0  0  0
    0.0000   -0.0000    0.0000 C   0  0  0  0  0  4           0  0  0
   -2.0114   -0.0003    1.1361 C   0  0  0  0  0  4           0  0  0
   -2.0369   -0.0254   -1.1994 C   0  0  0  0  0  4           0  0  0
   -0.6429    0.0034   -1.2331 C   0  0  0  0  0  4           0  0  0
   -4.1237    0.0073    2.5537 C   0  0  0  0  0  4           0  0  0
   -6.9005   -0.0323    3.0817 C   0  0  0  0  0  4           0  0  0
   -5.0341    0.5927    1.6625 C   0  0  0  0  0  4           0  0  0
   -4.6318   -0.5979    3.7133 C   0  0  0  0  0  4           0  0  0
   -6.4089    0.5741    1.9219 C   0  0  0  0  0  4           0  0  0
   -6.0049   -0.6205    3.9787 C   0  0  0  0  0  4           0  0  0
   -8.3414   -0.0194    3.3102 C   0  0  0  0  0  4           0  0  0
    1.9743   -0.0000    1.3011 C   0  0  0  0  0  4           0  0  0
    3.4937    0.0000    1.1547 C   0  0  2  0  0  4           0  0  0
    3.9581   -1.2455    0.3875 C   0  0  0  0  0  4           0  0  0
    4.1890    0.0862    2.5239 C   0  0  0  0  0  4           0  0  0
    5.4784   -1.2963    0.2563 C   0  0  0  0  0  4           0  0  0
    5.7096    0.0296    2.3912 C   0  0  0  0  0  4           0  0  0
    6.1639   -1.2025    1.6154 C   0  0  0  0  0  4           0  0  0
  1  7  2  0     0  0
  2 10  1  0     0  0
  2 21  1  0     0  0
  3 20  2  0     0  0
  4 20  1  0     0  0
  5 10  2  0     0  0
  5 11  1  0     0  0
  6 11  2  0     0  0
  6 12  1  0     0  0
  7 13  1  0     0  0
  8 11  1  0     0  0
  8 14  1  0     0  0
  9 12  1  0     0  0
 10 13  1  0     0  0
 12 13  2  0     0  0
 14 16  2  0     0  0
 14 17  1  0     0  0
 15 18  2  0     0  0
 15 19  1  0     0  0
 15 20  1  0     0  0
 16 18  1  0     0  0
 17 19  2  0     0  0
 21 22  1  0     0  0
 22 23  1  0     0  0
 22 24  1  0     0  0
 23 25  1  0     0  0
 24 26  1  0     0  0
 25 27  1  0     0  0
 26 27  1  0     0  0
M  END
> <Compound >
24

> <standard_type>
pIC50

> <# Confs.>
25

> <canonical_smiles>
O=NC(C(OCC1CCCCC1)=N2)=C(N)N=C2NC3=CC=C(C(O)=O)C=C3

> <standard_relation>
=

> <predicted_activity_value>
7.430626090384954

> <actual_activity_value>
6.958607314841775

> <Publication ID>
nan

> <standard_units>
nM

> hash
10097127070848566691

$$$$
24_
XXILIB    08252103453D 0   0.00000     0.00000

 27 29  0     1  0            999 V2000
   -0.5634   -0.5694   -3.3137 O   0  0  0  0  0  2           0  0  0
    1.3874    0.0000   -0.0000 O   0  0  0  0  0  2           0  0  0
   -9.1645   -0.4423    2.5558 O   0  0  0  0  0  2           0  0  0
   -8.5887    0.7066    4.4584 O   0  0  0  0  0  2           0  0  0
   -0.6612    0.0000    1.1790 N   0  0  0  0  0  3           0  0  0
   -2.7118   -0.0086   -0.0223 N   0  0  0  0  0  3           0  0  0
    0.0595    0.0025   -2.4107 N   0  0  0  0  0  3           0  0  0
   -2.7449    0.0062    2.3300 N   0  0  0  0  0  3           0  0  0
   -2.7865   -0.0002   -2.3752 N   0  0  0  0  0  3           0  0  0
    0.0000   -0.0000    0.0000 C   0  0  0  0  0  4           0  0  0
   -2.0114   -0.0003    1.1361 C   0  0  0  0  0  4           0  0  0
   -2.0369   -0.0254   -1.1994 C   0  0  0  0  0  4           0  0  0
   -0.6429    0.0034   -1.2331 C   0  0  0  0  0  4           0  0  0
   -4.1237    0.0073    2.5537 C   0  0  0  0  0  4           0  0  0
   -6.9008    0.0548    3.0798 C   0  0  0  0  0  4           0  0  0
   -5.0340   -0.5878    1.6690 C   0  0  0  0  0  4           0  0  0
   -4.6319    0.6258    3.7063 C   0  0  0  0  0  4           0  0  0
   -6.4089   -0.5655    1.9275 C   0  0  0  0  0  4           0  0  0
   -6.0051    0.6515    3.9712 C   0  0  0  0  0  4           0  0  0
   -8.3428    0.0574    3.3010 C   0  0  0  0  0  4           0  0  0
    1.9743   -0.0000    1.3011 C   0  0  0  0  0  4           0  0  0
    3.4937    0.0000    1.1547 C   0  0  2  0  0  4           0  0  0
    4.1651   -0.0000    2.5347 C   0  0  0  0  0  4           0  0  0
    3.9760    1.1950    0.3150 C   0  0  0  0  0  4           0  0  0
    5.6874    0.0386    2.4245 C   0  0  0  0  0  4           0  0  0
    5.4994    1.2353    0.2105 C   0  0  0  0  0  4           0  0  0
    6.1609    1.2204    1.5847 C   0  0  0  0  0  4           0  0  0
  1  7  2  0     0  0
  2 10  1  0     0  0
  2 21  1  0     0  0
  3 20  2  0     0  0
  4 20  1  0     0  0
  5 10  2  0     0  0
  5 11  1  0     0  0
  6 11  2  0     0  0
  6 12  1  0     0  0
  7 13  1  0     0  0
  8 11  1  0     0  0
  8 14  1  0     0  0
  9 12  1  0     0  0
 10 13  1  0     0  0
 12 13  2  0     0  0
 14 16  2  0     0  0
 14 17  1  0     0  0
 15 18  2  0     0  0
 15 19  1  0     0  0
 15 20  1  0     0  0
 16 18  1  0     0  0
 17 19  2  0     0  0
 21 22  1  0     0  0
 22 23  1  0     0  0
 22 24  1  0     0  0
 23 25  1  0     0  0
 24 26  1  0     0  0
 25 27  1  0     0  0
 26 27  1  0     0  0
M  END
> <Compound >
24

> <standard_type>
pIC50

> <# Confs.>
25

> <canonical_smiles>
O=NC(C(OCC1CCCCC1)=N2)=C(N)N=C2NC3=CC=C(C(O)=O)C=C3

> <standard_relation>
=

> <predicted_activity_value>
7.430626090384954

> <actual_activity_value>
6.958607314841775

> <Publication ID>
nan

> <standard_units>
nM

> hash
10097127070848566691

$$$$
24_
XXILIB    08252103453D 0   0.00000     0.00000

 27 29  0     1  0            999 V2000
   -0.5634   -0.5694   -3.3137 O   0  0  0  0  0  2           0  0  0
    1.3874    0.0000   -0.0000 O   0  0  0  0  0  2           0  0  0
   -9.1645   -0.4423    2.5558 O   0  0  0  0  0  2           0  0  0
   -8.5887    0.7066    4.4584 O   0  0  0  0  0  2           0  0  0
   -0.6612    0.0000    1.1790 N   0  0  0  0  0  3           0  0  0
   -2.7118   -0.0086   -0.0223 N   0  0  0  0  0  3           0  0  0
    0.0595    0.0025   -2.4107 N   0  0  0  0  0  3           0  0  0
   -2.7449    0.0062    2.3300 N   0  0  0  0  0  3           0  0  0
   -2.7865   -0.0002   -2.3752 N   0  0  0  0  0  3           0  0  0
    0.0000   -0.0000    0.0000 C   0  0  0  0  0  4           0  0  0
   -2.0114   -0.0003    1.1361 C   0  0  0  0  0  4           0  0  0
   -2.0369   -0.0254   -1.1994 C   0  0  0  0  0  4           0  0  0
   -0.6429    0.0034   -1.2331 C   0  0  0  0  0  4           0  0  0
   -4.1237    0.0073    2.5537 C   0  0  0  0  0  4           0  0  0
   -6.9008    0.0548    3.0798 C   0  0  0  0  0  4           0  0  0
   -5.0340   -0.5878    1.6690 C   0  0  0  0  0  4           0  0  0
   -4.6319    0.6258    3.7063 C   0  0  0  0  0  4           0  0  0
   -6.4089   -0.5655    1.9275 C   0  0  0  0  0  4           0  0  0
   -6.0051    0.6515    3.9712 C   0  0  0  0  0  4           0  0  0
   -8.3428    0.0574    3.3010 C   0  0  0  0  0  4           0  0  0
    1.9743   -0.0000    1.3011 C   0  0  0  0  0  4           0  0  0
    3.4937    0.0000    1.1547 C   0  0  2  0  0  4           0  0  0
    3.9581   -1.2455    0.3875 C   0  0  0  0  0  4           0  0  0
    4.1890    0.0862    2.5239 C   0  0  0  0  0  4           0  0  0
    5.4784   -1.2963    0.2563 C   0  0  0  0  0  4           0  0  0
    5.7096    0.0296    2.3912 C   0  0  0  0  0  4           0  0  0
    6.1639   -1.2025    1.6154 C   0  0  0  0  0  4           0  0  0
  1  7  2  0     0  0
  2 10  1  0     0  0
  2 21  1  0     0  0
  3 20  2  0     0  0
  4 20  1  0     0  0
  5 10  2  0     0  0
  5 11  1  0     0  0
  6 11  2  0     0  0
  6 12  1  0     0  0
  7 13  1  0     0  0
  8 11  1  0     0  0
  8 14  1  0     0  0
  9 12  1  0     0  0
 10 13  1  0     0  0
 12 13  2  0     0  0
 14 16  2  0     0  0
 14 17  1  0     0  0
 15 18  2  0     0  0
 15 19  1  0     0  0
 15 20  1  0     0  0
 16 18  1  0     0  0
 17 19  2  0     0  0
 21 22  1  0     0  0
 22 23  1  0     0  0
 22 24  1  0     0  0
 23 25  1  0     0  0
 24 26  1  0     0  0
 25 27  1  0     0  0
 26 27  1  0     0  0
M  END
> <Compound >
24

> <standard_type>
pIC50

> <# Confs.>
25

> <canonical_smiles>
O=NC(C(OCC1CCCCC1)=N2)=C(N)N=C2NC3=CC=C(C(O)=O)C=C3

> <standard_relation>
=

> <predicted_activity_value>
7.430626090384954

> <actual_activity_value>
6.958607314841775

> <Publication ID>
nan

> <standard_units>
nM

> hash
10097127070848566691

$$$$
24_
XXILIB    08252103453D 0   0.00000     0.00000

 27 29  0     1  0            999 V2000
   -0.5634   -0.5694   -3.3137 O   0  0  0  0  0  2           0  0  0
    1.3874    0.0000   -0.0000 O   0  0  0  0  0  2           0  0  0
   -9.1622    0.4820    2.5653 O   0  0  0  0  0  2           0  0  0
   -8.5867   -0.6500    4.4781 O   0  0  0  0  0  2           0  0  0
   -0.6612    0.0000    1.1790 N   0  0  0  0  0  3           0  0  0
   -2.7118   -0.0086   -0.0223 N   0  0  0  0  0  3           0  0  0
    0.0595    0.0025   -2.4107 N   0  0  0  0  0  3           0  0  0
   -2.7449    0.0062    2.3300 N   0  0  0  0  0  3           0  0  0
   -2.7865   -0.0002   -2.3752 N   0  0  0  0  0  3           0  0  0
    0.0000   -0.0000    0.0000 C   0  0  0  0  0  4           0  0  0
   -2.0114   -0.0003    1.1361 C   0  0  0  0  0  4           0  0  0
   -2.0369   -0.0254   -1.1994 C   0  0  0  0  0  4           0  0  0
   -0.6429    0.0034   -1.2331 C   0  0  0  0  0  4           0  0  0
   -4.1237    0.0073    2.5537 C   0  0  0  0  0  4           0  0  0
   -6.9005   -0.0323    3.0817 C   0  0  0  0  0  4           0  0  0
   -5.0341    0.5927    1.6625 C   0  0  0  0  0  4           0  0  0
   -4.6318   -0.5979    3.7133 C   0  0  0  0  0  4           0  0  0
   -6.4089    0.5741    1.9219 C   0  0  0  0  0  4           0  0  0
   -6.0049   -0.6205    3.9787 C   0  0  0  0  0  4           0  0  0
   -8.3414   -0.0194    3.3102 C   0  0  0  0  0  4           0  0  0
    1.9743   -0.0000    1.3011 C   0  0  0  0  0  4           0  0  0
    3.4937    0.0000    1.1547 C   0  0  2  0  0  4           0  0  0
    3.9581    1.2455    0.3875 C   0  0  0  0  0  4           0  0  0
    3.9904   -1.2812    0.4637 C   0  0  0  0  0  4           0  0  0
    5.4720    1.2576    0.1897 C   0  0  0  0  0  4           0  0  0
    5.5043   -1.2649    0.2615 C   0  0  0  0  0  4           0  0  0
    5.9610   -0.0179   -0.4885 C   0  0  0  0  0  4           0  0  0
  1  7  2  0     0  0
  2 10  1  0     0  0
  2 21  1  0     0  0
  3 20  2  0     0  0
  4 20  1  0     0  0
  5 10  2  0     0  0
  5 11  1  0     0  0
  6 11  2  0     0  0
  6 12  1  0     0  0
  7 13  1  0     0  0
  8 11  1  0     0  0
  8 14  1  0     0  0
  9 12  1  0     0  0
 10 13  1  0     0  0
 12 13  2  0     0  0
 14 16  2  0     0  0
 14 17  1  0     0  0
 15 18  2  0     0  0
 15 19  1  0     0  0
 15 20  1  0     0  0
 16 18  1  0     0  0
 17 19  2  0     0  0
 21 22  1  0     0  0
 22 23  1  0     0  0
 22 24  1  0     0  0
 23 25  1  0     0  0
 24 26  1  0     0  0
 25 27  1  0     0  0
 26 27  1  0     0  0
M  END
> <Compound >
24

> <standard_type>
pIC50

> <# Confs.>
25

> <canonical_smiles>
O=NC(C(OCC1CCCCC1)=N2)=C(N)N=C2NC3=CC=C(C(O)=O)C=C3

> <standard_relation>
=

> <predicted_activity_value>
7.430626090384954

> <actual_activity_value>
6.958607314841775

> <Publication ID>
nan

> <standard_units>
nM

> hash
10097127070848566691

$$$$
24_
XXILIB    08252103453D 0   0.00000     0.00000

 27 29  0     1  0            999 V2000
   -0.5634   -0.5694   -3.3137 O   0  0  0  0  0  2           0  0  0
    1.3874    0.0000   -0.0000 O   0  0  0  0  0  2           0  0  0
   -9.1645   -0.4423    2.5558 O   0  0  0  0  0  2           0  0  0
   -8.5887    0.7066    4.4584 O   0  0  0  0  0  2           0  0  0
   -0.6612    0.0000    1.1790 N   0  0  0  0  0  3           0  0  0
   -2.7118   -0.0086   -0.0223 N   0  0  0  0  0  3           0  0  0
    0.0595    0.0025   -2.4107 N   0  0  0  0  0  3           0  0  0
   -2.7449    0.0062    2.3300 N   0  0  0  0  0  3           0  0  0
   -2.7865   -0.0002   -2.3752 N   0  0  0  0  0  3           0  0  0
    0.0000   -0.0000    0.0000 C   0  0  0  0  0  4           0  0  0
   -2.0114   -0.0003    1.1361 C   0  0  0  0  0  4           0  0  0
   -2.0369   -0.0254   -1.1994 C   0  0  0  0  0  4           0  0  0
   -0.6429    0.0034   -1.2331 C   0  0  0  0  0  4           0  0  0
   -4.1237    0.0073    2.5537 C   0  0  0  0  0  4           0  0  0
   -6.9008    0.0548    3.0798 C   0  0  0  0  0  4           0  0  0
   -5.0340   -0.5878    1.6690 C   0  0  0  0  0  4           0  0  0
   -4.6319    0.6258    3.7063 C   0  0  0  0  0  4           0  0  0
   -6.4089   -0.5655    1.9275 C   0  0  0  0  0  4           0  0  0
   -6.0051    0.6515    3.9712 C   0  0  0  0  0  4           0  0  0
   -8.3428    0.0574    3.3010 C   0  0  0  0  0  4           0  0  0
    1.9743   -0.0000    1.3011 C   0  0  0  0  0  4           0  0  0
    3.4937    0.0000    1.1547 C   0  0  2  0  0  4           0  0  0
    3.9581    1.2455    0.3875 C   0  0  0  0  0  4           0  0  0
    3.9904   -1.2812    0.4637 C   0  0  0  0  0  4           0  0  0
    5.4720    1.2576    0.1897 C   0  0  0  0  0  4           0  0  0
    5.5043   -1.2649    0.2615 C   0  0  0  0  0  4           0  0  0
    5.9610   -0.0179   -0.4885 C   0  0  0  0  0  4           0  0  0
  1  7  2  0     0  0
  2 10  1  0     0  0
  2 21  1  0     0  0
  3 20  2  0     0  0
  4 20  1  0     0  0
  5 10  2  0     0  0
  5 11  1  0     0  0
  6 11  2  0     0  0
  6 12  1  0     0  0
  7 13  1  0     0  0
  8 11  1  0     0  0
  8 14  1  0     0  0
  9 12  1  0     0  0
 10 13  1  0     0  0
 12 13  2  0     0  0
 14 16  2  0     0  0
 14 17  1  0     0  0
 15 18  2  0     0  0
 15 19  1  0     0  0
 15 20  1  0     0  0
 16 18  1  0     0  0
 17 19  2  0     0  0
 21 22  1  0     0  0
 22 23  1  0     0  0
 22 24  1  0     0  0
 23 25  1  0     0  0
 24 26  1  0     0  0
 25 27  1  0     0  0
 26 27  1  0     0  0
M  END
> <Compound >
24

> <standard_type>
pIC50

> <# Confs.>
25

> <canonical_smiles>
O=NC(C(OCC1CCCCC1)=N2)=C(N)N=C2NC3=CC=C(C(O)=O)C=C3

> <standard_relation>
=

> <predicted_activity_value>
7.430626090384954

> <actual_activity_value>
6.958607314841775

> <Publication ID>
nan

> <standard_units>
nM

> hash
10097127070848566691

$$$$
24_
XXILIB    08252103453D 0   0.00000     0.00000

 27 29  0     1  0            999 V2000
   -0.5634   -0.5694   -3.3137 O   0  0  0  0  0  2           0  0  0
    1.3874    0.0000   -0.0000 O   0  0  0  0  0  2           0  0  0
   -1.5683    0.5157    8.6403 O   0  0  0  0  0  2           0  0  0
    0.2333   -0.6313    7.7976 O   0  0  0  0  0  2           0  0  0
   -0.6612    0.0000    1.1790 N   0  0  0  0  0  3           0  0  0
   -2.7118   -0.0086   -0.0223 N   0  0  0  0  0  3           0  0  0
    0.0595    0.0025   -2.4107 N   0  0  0  0  0  3           0  0  0
   -2.7449    0.0062    2.3300 N   0  0  0  0  0  3           0  0  0
   -2.7865   -0.0002   -2.3752 N   0  0  0  0  0  3           0  0  0
    0.0000    0.0000    0.0000 C   0  0  0  0  0  4           0  0  0
   -2.0114   -0.0003    1.1361 C   0  0  0  0  0  4           0  0  0
   -2.0369   -0.0254   -1.1994 C   0  0  0  0  0  4           0  0  0
   -0.6429    0.0034   -1.2331 C   0  0  0  0  0  4           0  0  0
   -2.3213    0.0135    3.6611 C   0  0  0  0  0  4           0  0  0
   -1.3920   -0.0142    6.3306 C   0  0  0  0  0  4           0  0  0
   -3.0662    0.6093    4.6886 C   0  0  0  0  0  4           0  0  0
   -1.1030   -0.5962    3.9974 C   0  0  0  0  0  4           0  0  0
   -2.6081    0.5967    6.0105 C   0  0  0  0  0  4           0  0  0
   -0.6392   -0.6129    5.3169 C   0  0  0  0  0  4           0  0  0
   -0.9545    0.0051    7.7223 C   0  0  0  0  0  4           0  0  0
    1.9743   -0.0000    1.3011 C   0  0  0  0  0  4           0  0  0
    3.4937    0.0000    1.1547 C   0  0  2  0  0  4           0  0  0
    4.0117   -1.2317    0.3903 C   0  0  0  0  0  4           0  0  0
    4.1876    0.1132    2.5204 C   0  0  0  0  0  4           0  0  0
    3.9269   -2.5196    1.2085 C   0  0  0  0  0  4           0  0  0
    4.0975   -1.1725    3.3411 C   0  0  0  0  0  4           0  0  0
    4.6213   -2.3734    2.5592 C   0  0  0  0  0  4           0  0  0
  1  7  2  0     0  0
  2 10  1  0     0  0
  2 21  1  0     0  0
  3 20  2  0     0  0
  4 20  1  0     0  0
  5 10  2  0     0  0
  5 11  1  0     0  0
  6 11  2  0     0  0
  6 12  1  0     0  0
  7 13  1  0     0  0
  8 11  1  0     0  0
  8 14  1  0     0  0
  9 12  1  0     0  0
 10 13  1  0     0  0
 12 13  2  0     0  0
 14 16  2  0     0  0
 14 17  1  0     0  0
 15 18  2  0     0  0
 15 19  1  0     0  0
 15 20  1  0     0  0
 16 18  1  0     0  0
 17 19  2  0     0  0
 21 22  1  0     0  0
 22 23  1  0     0  0
 22 24  1  0     0  0
 23 25  1  0     0  0
 24 26  1  0     0  0
 25 27  1  0     0  0
 26 27  1  0     0  0
M  END
> <Compound >
24

> <standard_type>
pIC50

> <# Confs.>
25

> <canonical_smiles>
O=NC(C(OCC1CCCCC1)=N2)=C(N)N=C2NC3=CC=C(C(O)=O)C=C3

> <standard_relation>
=

> <predicted_activity_value>
7.430626090384954

> <actual_activity_value>
6.958607314841775

> <Publication ID>
nan

> <standard_units>
nM

> hash
10097127070848566691

$$$$
24_
XXILIB    08252103453D 0   0.00000     0.00000

 27 29  0     1  0            999 V2000
   -0.5634   -0.5694   -3.3137 O   0  0  0  0  0  2           0  0  0
    1.3874    0.0000   -0.0000 O   0  0  0  0  0  2           0  0  0
   -1.5823   -0.4085    8.6498 O   0  0  0  0  0  2           0  0  0
    0.2214    0.7253    7.7940 O   0  0  0  0  0  2           0  0  0
   -0.6612    0.0000    1.1790 N   0  0  0  0  0  3           0  0  0
   -2.7118   -0.0086   -0.0223 N   0  0  0  0  0  3           0  0  0
    0.0595    0.0025   -2.4107 N   0  0  0  0  0  3           0  0  0
   -2.7449    0.0062    2.3300 N   0  0  0  0  0  3           0  0  0
   -2.7865   -0.0002   -2.3752 N   0  0  0  0  0  3           0  0  0
    0.0000    0.0000    0.0000 C   0  0  0  0  0  4           0  0  0
   -2.0114   -0.0003    1.1361 C   0  0  0  0  0  4           0  0  0
   -2.0369   -0.0254   -1.1994 C   0  0  0  0  0  4           0  0  0
   -0.6429    0.0034   -1.2331 C   0  0  0  0  0  4           0  0  0
   -2.3213    0.0135    3.6611 C   0  0  0  0  0  4           0  0  0
   -1.3933    0.0729    6.3306 C   0  0  0  0  0  4           0  0  0
   -3.0662   -0.5712    4.6950 C   0  0  0  0  0  4           0  0  0
   -1.1034    0.6275    3.9908 C   0  0  0  0  0  4           0  0  0
   -2.6086   -0.5429    6.0170 C   0  0  0  0  0  4           0  0  0
   -0.6398    0.6591    5.3101 C   0  0  0  0  0  4           0  0  0
   -0.9631    0.0820    7.7246 C   0  0  0  0  0  4           0  0  0
    1.9743   -0.0000    1.3011 C   0  0  0  0  0  4           0  0  0
    3.4937    0.0000    1.1547 C   0  0  2  0  0  4           0  0  0
    4.0117   -1.2317    0.3903 C   0  0  0  0  0  4           0  0  0
    4.1876    0.1132    2.5204 C   0  0  0  0  0  4           0  0  0
    3.9269   -2.5196    1.2085 C   0  0  0  0  0  4           0  0  0
    4.0975   -1.1725    3.3411 C   0  0  0  0  0  4           0  0  0
    4.6213   -2.3734    2.5592 C   0  0  0  0  0  4           0  0  0
  1  7  2  0     0  0
  2 10  1  0     0  0
  2 21  1  0     0  0
  3 20  2  0     0  0
  4 20  1  0     0  0
  5 10  2  0     0  0
  5 11  1  0     0  0
  6 11  2  0     0  0
  6 12  1  0     0  0
  7 13  1  0     0  0
  8 11  1  0     0  0
  8 14  1  0     0  0
  9 12  1  0     0  0
 10 13  1  0     0  0
 12 13  2  0     0  0
 14 16  2  0     0  0
 14 17  1  0     0  0
 15 18  2  0     0  0
 15 19  1  0     0  0
 15 20  1  0     0  0
 16 18  1  0     0  0
 17 19  2  0     0  0
 21 22  1  0     0  0
 22 23  1  0     0  0
 22 24  1  0     0  0
 23 25  1  0     0  0
 24 26  1  0     0  0
 25 27  1  0     0  0
 26 27  1  0     0  0
M  END
> <Compound >
24

> <standard_type>
pIC50

> <# Confs.>
25

> <canonical_smiles>
O=NC(C(OCC1CCCCC1)=N2)=C(N)N=C2NC3=CC=C(C(O)=O)C=C3

> <standard_relation>
=

> <predicted_activity_value>
7.430626090384954

> <actual_activity_value>
6.958607314841775

> <Publication ID>
nan

> <standard_units>
nM

> hash
10097127070848566691

$$$$
24_
XXILIB    08252103453D 0   0.00000     0.00000

 27 29  0     1  0            999 V2000
   -0.5634   -0.5694   -3.3137 O   0  0  0  0  0  2           0  0  0
    1.3874    0.0000    0.0000 O   0  0  0  0  0  2           0  0  0
   -0.0568   -0.4367    8.1645 O   0  0  0  0  0  2           0  0  0
   -2.0177    0.7076    8.5066 O   0  0  0  0  0  2           0  0  0
   -0.6612    0.0000    1.1790 N   0  0  0  0  0  3           0  0  0
   -2.7118   -0.0086   -0.0223 N   0  0  0  0  0  3           0  0  0
    0.0595    0.0025   -2.4107 N   0  0  0  0  0  3           0  0  0
   -2.7449    0.0062    2.3300 N   0  0  0  0  0  3           0  0  0
   -2.7865   -0.0002   -2.3752 N   0  0  0  0  0  3           0  0  0
    0.0000    0.0000    0.0000 C   0  0  0  0  0  4           0  0  0
   -2.0114   -0.0003    1.1361 C   0  0  0  0  0  4           0  0  0
   -2.0369   -0.0254   -1.1994 C   0  0  0  0  0  4           0  0  0
   -0.6429    0.0034   -1.2331 C   0  0  0  0  0  4           0  0  0
   -2.3213    0.0135    3.6611 C   0  0  0  0  0  4           0  0  0
   -1.5371    0.0707    6.3764 C   0  0  0  0  0  4           0  0  0
   -1.1177   -0.5745    4.0750 C   0  0  0  0  0  4           0  0  0
   -3.1232    0.6303    4.6335 C   0  0  0  0  0  4           0  0  0
   -0.7277   -0.5472    5.4185 C   0  0  0  0  0  4           0  0  0
   -2.7392    0.6617    5.9782 C   0  0  0  0  0  4           0  0  0
   -1.0899    0.0666    7.7650 C   0  0  0  0  0  4           0  0  0
    1.9743    0.0000    1.3011 C   0  0  0  0  0  4           0  0  0
    2.1762   -1.4453    1.7489 C   0  0  2  0  0  4           0  0  0
    2.8069   -1.4900    3.1473 C   0  0  0  0  0  4           0  0  0
    3.0323   -2.2302    0.7406 C   0  0  0  0  0  4           0  0  0
    3.0581   -2.9230    3.6103 C   0  0  0  0  0  4           0  0  0
    3.2874   -3.6618    1.2081 C   0  0  0  0  0  4           0  0  0
    3.9006   -3.6998    2.6041 C   0  0  0  0  0  4           0  0  0
  1  7  2  0     0  0
  2 10  1  0     0  0
  2 21  1  0     0  0
  3 20  2  0     0  0
  4 20  1  0     0  0
  5 10  2  0     0  0
  5 11  1  0     0  0
  6 11  2  0     0  0
  6 12  1  0     0  0
  7 13  1  0     0  0
  8 11  1  0     0  0
  8 14  1  0     0  0
  9 12  1  0     0  0
 10 13  1  0     0  0
 12 13  2  0     0  0
 14 16  2  0     0  0
 14 17  1  0     0  0
 15 18  2  0     0  0
 15 19  1  0     0  0
 15 20  1  0     0  0
 16 18  1  0     0  0
 17 19  2  0     0  0
 21 22  1  0     0  0
 22 23  1  0     0  0
 22 24  1  0     0  0
 23 25  1  0     0  0
 24 26  1  0     0  0
 25 27  1  0     0  0
 26 27  1  0     0  0
M  END
> <Compound >
24

> <standard_type>
pIC50

> <# Confs.>
25

> <canonical_smiles>
O=NC(C(OCC1CCCCC1)=N2)=C(N)N=C2NC3=CC=C(C(O)=O)C=C3

> <standard_relation>
=

> <predicted_activity_value>
7.430626090384954

> <actual_activity_value>
6.958607314841775

> <Publication ID>
nan

> <standard_units>
nM

> hash
10097127070848566691

$$$$
20_
XXILIB    08252103453D 0   0.00000     0.00000

 26 28  0     1  0            999 V2000
   -0.6283   -0.5507   -3.3157 O   0  0  0  0  0  2           0  0  0
    1.3872   -0.0000    0.0000 O   0  0  0  0  0  2           0  0  0
   -0.0238    0.4475    8.0818 O   0  0  0  0  0  2           0  0  0
   -0.6679    0.0000    1.1797 N   0  0  0  0  0  3           0  0  0
   -2.7275    0.0201   -0.0166 N   0  0  0  0  0  3           0  0  0
    0.0162    0.0250   -2.4302 N   0  0  0  0  0  3           0  0  0
   -2.7544    0.0098    2.3345 N   0  0  0  0  0  3           0  0  0
   -1.9590   -0.7001    8.6317 N   0  0  0  0  0  3           0  0  0
    0.0000    0.0000    0.0000 C   0  0  0  0  0  4           0  0  0
   -2.0235    0.0091    1.1389 C   0  0  0  0  0  4           0  0  0
   -2.0219    0.0198   -1.1683 C   0  0  0  0  0  4           0  0  0
   -0.6420    0.0026   -1.2275 C   0  0  0  0  0  4           0  0  0
   -2.3285    0.0025    3.6648 C   0  0  0  0  0  4           0  0  0
   -1.5366   -0.0605    6.3795 C   0  0  0  0  0  4           0  0  0
   -1.1205    0.5833    4.0753 C   0  0  0  0  0  4           0  0  0
   -3.1318   -0.6089    4.6395 C   0  0  0  0  0  4           0  0  0
   -0.7270    0.5534    5.4178 C   0  0  0  0  0  4           0  0  0
   -2.7444   -0.6425    5.9830 C   0  0  0  0  0  4           0  0  0
   -1.0887   -0.0721    7.7726 C   0  0  0  0  0  4           0  0  0
    1.9728    0.0000    1.3017 C   0  0  0  0  0  4           0  0  0
    3.4920   -0.0000    1.1548 C   0  0  2  0  0  4           0  0  0
    4.1653   -0.0000    2.5341 C   0  0  0  0  0  4           0  0  0
    3.9759    1.1941    0.3145 C   0  0  0  0  0  4           0  0  0
    5.6877    0.0327    2.4198 C   0  0  0  0  0  4           0  0  0
    5.4991    1.2292    0.2069 C   0  0  0  0  0  4           0  0  0
    6.1636    1.2133    1.5795 C   0  0  0  0  0  4           0  0  0
  1  6  2  0     0  0
  2  9  1  0     0  0
  2 20  1  0     0  0
  3 19  2  0     0  0
  4  9  2  0     0  0
  4 10  1  0     0  0
  5 10  2  0     0  0
  5 11  1  0     0  0
  6 12  1  0     0  0
  7 10  1  0     0  0
  7 13  1  0     0  0
  8 19  1  0     0  0
  9 12  1  0     0  0
 11 12  2  0     0  0
 13 15  2  0     0  0
 13 16  1  0     0  0
 14 17  2  0     0  0
 14 18  1  0     0  0
 14 19  1  0     0  0
 15 17  1  0     0  0
 16 18  2  0     0  0
 20 21  1  0     0  0
 21 22  1  0     0  0
 21 23  1  0     0  0
 22 24  1  0     0  0
 23 25  1  0     0  0
 24 26  1  0     0  0
 25 26  1  0     0  0
M  END
> <Compound >
20

> <standard_type>
pIC50

> <# Confs.>
25

> <canonical_smiles>
O=NC(C(OCC1CCCCC1)=N2)=CN=C2NC3=CC=C(C(N)=O)C=C3

> <standard_relation>
=

> <predicted_activity_value>
7.4179366370882915

> <actual_activity_value>
7.468521082957745

> <Publication ID>
nan

> <standard_units>
nM

> hash
6513432889398524829

$$$$
20_
XXILIB    08252103453D 0   0.00000     0.00000

 26 28  0     1  0            999 V2000
   -0.6283   -0.5507   -3.3157 O   0  0  0  0  0  2           0  0  0
    1.3872   -0.0000    0.0000 O   0  0  0  0  0  2           0  0  0
   -0.0410   -0.5225    8.0820 O   0  0  0  0  0  2           0  0  0
   -0.6679    0.0000    1.1797 N   0  0  0  0  0  3           0  0  0
   -2.7275    0.0201   -0.0166 N   0  0  0  0  0  3           0  0  0
    0.0162    0.0250   -2.4302 N   0  0  0  0  0  3           0  0  0
   -2.7544    0.0098    2.3345 N   0  0  0  0  0  3           0  0  0
   -1.9618    0.6452    8.6400 N   0  0  0  0  0  3           0  0  0
    0.0000    0.0000    0.0000 C   0  0  0  0  0  4           0  0  0
   -2.0235    0.0091    1.1389 C   0  0  0  0  0  4           0  0  0
   -2.0219    0.0198   -1.1683 C   0  0  0  0  0  4           0  0  0
   -0.6420    0.0026   -1.2275 C   0  0  0  0  0  4           0  0  0
   -2.3285    0.0025    3.6648 C   0  0  0  0  0  4           0  0  0
   -1.5412    0.0272    6.3814 C   0  0  0  0  0  4           0  0  0
   -1.1283   -0.5971    4.0713 C   0  0  0  0  0  4           0  0  0
   -3.1253    0.6149    4.6441 C   0  0  0  0  0  4           0  0  0
   -0.7369   -0.5858    5.4146 C   0  0  0  0  0  4           0  0  0
   -2.7401    0.6296    5.9886 C   0  0  0  0  0  4           0  0  0
   -1.0973    0.0160    7.7758 C   0  0  0  0  0  4           0  0  0
    1.9728    0.0000    1.3017 C   0  0  0  0  0  4           0  0  0
    3.4920   -0.0000    1.1548 C   0  0  2  0  0  4           0  0  0
    4.1653   -0.0000    2.5341 C   0  0  0  0  0  4           0  0  0
    3.9759    1.1941    0.3145 C   0  0  0  0  0  4           0  0  0
    5.6877    0.0327    2.4198 C   0  0  0  0  0  4           0  0  0
    5.4991    1.2292    0.2069 C   0  0  0  0  0  4           0  0  0
    6.1636    1.2133    1.5795 C   0  0  0  0  0  4           0  0  0
  1  6  2  0     0  0
  2  9  1  0     0  0
  2 20  1  0     0  0
  3 19  2  0     0  0
  4  9  2  0     0  0
  4 10  1  0     0  0
  5 10  2  0     0  0
  5 11  1  0     0  0
  6 12  1  0     0  0
  7 10  1  0     0  0
  7 13  1  0     0  0
  8 19  1  0     0  0
  9 12  1  0     0  0
 11 12  2  0     0  0
 13 15  2  0     0  0
 13 16  1  0     0  0
 14 17  2  0     0  0
 14 18  1  0     0  0
 14 19  1  0     0  0
 15 17  1  0     0  0
 16 18  2  0     0  0
 20 21  1  0     0  0
 21 22  1  0     0  0
 21 23  1  0     0  0
 22 24  1  0     0  0
 23 25  1  0     0  0
 24 26  1  0     0  0
 25 26  1  0     0  0
M  END
> <Compound >
20

> <standard_type>
pIC50

> <# Confs.>
25

> <canonical_smiles>
O=NC(C(OCC1CCCCC1)=N2)=CN=C2NC3=CC=C(C(N)=O)C=C3

> <standard_relation>
=

> <predicted_activity_value>
7.4179366370882915

> <actual_activity_value>
7.468521082957745

> <Publication ID>
nan

> <standard_units>
nM

> hash
6513432889398524829

$$$$
20_
XXILIB    08252103453D 0   0.00000     0.00000

 26 28  0     1  0            999 V2000
   -0.6283   -0.5507   -3.3157 O   0  0  0  0  0  2           0  0  0
    1.3872   -0.0000    0.0000 O   0  0  0  0  0  2           0  0  0
   -0.0238    0.4475    8.0818 O   0  0  0  0  0  2           0  0  0
   -0.6679    0.0000    1.1797 N   0  0  0  0  0  3           0  0  0
   -2.7275    0.0201   -0.0166 N   0  0  0  0  0  3           0  0  0
    0.0162    0.0250   -2.4302 N   0  0  0  0  0  3           0  0  0
   -2.7544    0.0098    2.3345 N   0  0  0  0  0  3           0  0  0
   -1.9590   -0.7001    8.6317 N   0  0  0  0  0  3           0  0  0
    0.0000    0.0000    0.0000 C   0  0  0  0  0  4           0  0  0
   -2.0235    0.0091    1.1389 C   0  0  0  0  0  4           0  0  0
   -2.0219    0.0198   -1.1683 C   0  0  0  0  0  4           0  0  0
   -0.6420    0.0026   -1.2275 C   0  0  0  0  0  4           0  0  0
   -2.3285    0.0025    3.6648 C   0  0  0  0  0  4           0  0  0
   -1.5366   -0.0605    6.3795 C   0  0  0  0  0  4           0  0  0
   -1.1205    0.5833    4.0753 C   0  0  0  0  0  4           0  0  0
   -3.1318   -0.6089    4.6395 C   0  0  0  0  0  4           0  0  0
   -0.7270    0.5534    5.4178 C   0  0  0  0  0  4           0  0  0
   -2.7444   -0.6425    5.9830 C   0  0  0  0  0  4           0  0  0
   -1.0887   -0.0721    7.7726 C   0  0  0  0  0  4           0  0  0
    1.9728    0.0000    1.3017 C   0  0  0  0  0  4           0  0  0
    3.4920   -0.0000    1.1548 C   0  0  2  0  0  4           0  0  0
    3.9578   -1.2450    0.3876 C   0  0  0  0  0  4           0  0  0
    4.1894    0.0870    2.5231 C   0  0  0  0  0  4           0  0  0
    5.4782   -1.2898    0.2526 C   0  0  0  0  0  4           0  0  0
    5.7099    0.0353    2.3868 C   0  0  0  0  0  4           0  0  0
    6.1666   -1.1953    1.6105 C   0  0  0  0  0  4           0  0  0
  1  6  2  0     0  0
  2  9  1  0     0  0
  2 20  1  0     0  0
  3 19  2  0     0  0
  4  9  2  0     0  0
  4 10  1  0     0  0
  5 10  2  0     0  0
  5 11  1  0     0  0
  6 12  1  0     0  0
  7 10  1  0     0  0
  7 13  1  0     0  0
  8 19  1  0     0  0
  9 12  1  0     0  0
 11 12  2  0     0  0
 13 15  2  0     0  0
 13 16  1  0     0  0
 14 17  2  0     0  0
 14 18  1  0     0  0
 14 19  1  0     0  0
 15 17  1  0     0  0
 16 18  2  0     0  0
 20 21  1  0     0  0
 21 22  1  0     0  0
 21 23  1  0     0  0
 22 24  1  0     0  0
 23 25  1  0     0  0
 24 26  1  0     0  0
 25 26  1  0     0  0
M  END
> <Compound >
20

> <standard_type>
pIC50

> <# Confs.>
25

> <canonical_smiles>
O=NC(C(OCC1CCCCC1)=N2)=CN=C2NC3=CC=C(C(N)=O)C=C3

> <standard_relation>
=

> <predicted_activity_value>
7.4179366370882915

> <actual_activity_value>
7.468521082957745

> <Publication ID>
nan

> <standard_units>
nM

> hash
6513432889398524829

$$$$
20_
XXILIB    08252103453D 0   0.00000     0.00000

 26 28  0     1  0            999 V2000
   -0.6283   -0.5507   -3.3157 O   0  0  0  0  0  2           0  0  0
    1.3872   -0.0000    0.0000 O   0  0  0  0  0  2           0  0  0
   -0.0410   -0.5225    8.0820 O   0  0  0  0  0  2           0  0  0
   -0.6679    0.0000    1.1797 N   0  0  0  0  0  3           0  0  0
   -2.7275    0.0201   -0.0166 N   0  0  0  0  0  3           0  0  0
    0.0162    0.0250   -2.4302 N   0  0  0  0  0  3           0  0  0
   -2.7544    0.0098    2.3345 N   0  0  0  0  0  3           0  0  0
   -1.9618    0.6452    8.6400 N   0  0  0  0  0  3           0  0  0
    0.0000    0.0000    0.0000 C   0  0  0  0  0  4           0  0  0
   -2.0235    0.0091    1.1389 C   0  0  0  0  0  4           0  0  0
   -2.0219    0.0198   -1.1683 C   0  0  0  0  0  4           0  0  0
   -0.6420    0.0026   -1.2275 C   0  0  0  0  0  4           0  0  0
   -2.3285    0.0025    3.6648 C   0  0  0  0  0  4           0  0  0
   -1.5412    0.0272    6.3814 C   0  0  0  0  0  4           0  0  0
   -1.1283   -0.5971    4.0713 C   0  0  0  0  0  4           0  0  0
   -3.1253    0.6149    4.6441 C   0  0  0  0  0  4           0  0  0
   -0.7369   -0.5858    5.4146 C   0  0  0  0  0  4           0  0  0
   -2.7401    0.6296    5.9886 C   0  0  0  0  0  4           0  0  0
   -1.0973    0.0160    7.7758 C   0  0  0  0  0  4           0  0  0
    1.9728    0.0000    1.3017 C   0  0  0  0  0  4           0  0  0
    3.4920   -0.0000    1.1548 C   0  0  2  0  0  4           0  0  0
    3.9578   -1.2450    0.3876 C   0  0  0  0  0  4           0  0  0
    4.1894    0.0870    2.5231 C   0  0  0  0  0  4           0  0  0
    5.4782   -1.2898    0.2526 C   0  0  0  0  0  4           0  0  0
    5.7099    0.0353    2.3868 C   0  0  0  0  0  4           0  0  0
    6.1666   -1.1953    1.6105 C   0  0  0  0  0  4           0  0  0
  1  6  2  0     0  0
  2  9  1  0     0  0
  2 20  1  0     0  0
  3 19  2  0     0  0
  4  9  2  0     0  0
  4 10  1  0     0  0
  5 10  2  0     0  0
  5 11  1  0     0  0
  6 12  1  0     0  0
  7 10  1  0     0  0
  7 13  1  0     0  0
  8 19  1  0     0  0
  9 12  1  0     0  0
 11 12  2  0     0  0
 13 15  2  0     0  0
 13 16  1  0     0  0
 14 17  2  0     0  0
 14 18  1  0     0  0
 14 19  1  0     0  0
 15 17  1  0     0  0
 16 18  2  0     0  0
 20 21  1  0     0  0
 21 22  1  0     0  0
 21 23  1  0     0  0
 22 24  1  0     0  0
 23 25  1  0     0  0
 24 26  1  0     0  0
 25 26  1  0     0  0
M  END
> <Compound >
20

> <standard_type>
pIC50

> <# Confs.>
25

> <canonical_smiles>
O=NC(C(OCC1CCCCC1)=N2)=CN=C2NC3=CC=C(C(N)=O)C=C3

> <standard_relation>
=

> <predicted_activity_value>
7.4179366370882915

> <actual_activity_value>
7.468521082957745

> <Publication ID>
nan

> <standard_units>
nM

> hash
6513432889398524829

$$$$
20_
XXILIB    08252103453D 0   0.00000     0.00000

 26 28  0     1  0            999 V2000
   -0.6283   -0.5507   -3.3157 O   0  0  0  0  0  2           0  0  0
    1.3872   -0.0000    0.0000 O   0  0  0  0  0  2           0  0  0
   -0.0238    0.4475    8.0818 O   0  0  0  0  0  2           0  0  0
   -0.6679    0.0000    1.1797 N   0  0  0  0  0  3           0  0  0
   -2.7275    0.0201   -0.0166 N   0  0  0  0  0  3           0  0  0
    0.0162    0.0250   -2.4302 N   0  0  0  0  0  3           0  0  0
   -2.7544    0.0098    2.3345 N   0  0  0  0  0  3           0  0  0
   -1.9590   -0.7001    8.6317 N   0  0  0  0  0  3           0  0  0
    0.0000    0.0000    0.0000 C   0  0  0  0  0  4           0  0  0
   -2.0235    0.0091    1.1389 C   0  0  0  0  0  4           0  0  0
   -2.0219    0.0198   -1.1683 C   0  0  0  0  0  4           0  0  0
   -0.6420    0.0026   -1.2275 C   0  0  0  0  0  4           0  0  0
   -2.3285    0.0025    3.6648 C   0  0  0  0  0  4           0  0  0
   -1.5366   -0.0605    6.3795 C   0  0  0  0  0  4           0  0  0
   -1.1205    0.5833    4.0753 C   0  0  0  0  0  4           0  0  0
   -3.1318   -0.6089    4.6395 C   0  0  0  0  0  4           0  0  0
   -0.7270    0.5534    5.4178 C   0  0  0  0  0  4           0  0  0
   -2.7444   -0.6425    5.9830 C   0  0  0  0  0  4           0  0  0
   -1.0887   -0.0721    7.7726 C   0  0  0  0  0  4           0  0  0
    1.9728    0.0000    1.3017 C   0  0  0  0  0  4           0  0  0
    3.4920   -0.0000    1.1548 C   0  0  2  0  0  4           0  0  0
    3.9578    1.2450    0.3876 C   0  0  0  0  0  4           0  0  0
    3.9904   -1.2811    0.4645 C   0  0  0  0  0  4           0  0  0
    5.4728    1.2571    0.1962 C   0  0  0  0  0  4           0  0  0
    5.5050   -1.2645    0.2677 C   0  0  0  0  0  4           0  0  0
    5.9644   -0.0180   -0.4813 C   0  0  0  0  0  4           0  0  0
  1  6  2  0     0  0
  2  9  1  0     0  0
  2 20  1  0     0  0
  3 19  2  0     0  0
  4  9  2  0     0  0
  4 10  1  0     0  0
  5 10  2  0     0  0
  5 11  1  0     0  0
  6 12  1  0     0  0
  7 10  1  0     0  0
  7 13  1  0     0  0
  8 19  1  0     0  0
  9 12  1  0     0  0
 11 12  2  0     0  0
 13 15  2  0     0  0
 13 16  1  0     0  0
 14 17  2  0     0  0
 14 18  1  0     0  0
 14 19  1  0     0  0
 15 17  1  0     0  0
 16 18  2  0     0  0
 20 21  1  0     0  0
 21 22  1  0     0  0
 21 23  1  0     0  0
 22 24  1  0     0  0
 23 25  1  0     0  0
 24 26  1  0     0  0
 25 26  1  0     0  0
M  END
> <Compound >
20

> <standard_type>
pIC50

> <# Confs.>
25

> <canonical_smiles>
O=NC(C(OCC1CCCCC1)=N2)=CN=C2NC3=CC=C(C(N)=O)C=C3

> <standard_relation>
=

> <predicted_activity_value>
7.4179366370882915

> <actual_activity_value>
7.468521082957745

> <Publication ID>
nan

> <standard_units>
nM

> hash
6513432889398524829

$$$$
20_
XXILIB    08252103453D 0   0.00000     0.00000

 26 28  0     1  0            999 V2000
   -0.6283   -0.5507   -3.3157 O   0  0  0  0  0  2           0  0  0
    1.3872   -0.0000    0.0000 O   0  0  0  0  0  2           0  0  0
   -0.0410   -0.5225    8.0820 O   0  0  0  0  0  2           0  0  0
   -0.6679    0.0000    1.1797 N   0  0  0  0  0  3           0  0  0
   -2.7275    0.0201   -0.0166 N   0  0  0  0  0  3           0  0  0
    0.0162    0.0250   -2.4302 N   0  0  0  0  0  3           0  0  0
   -2.7544    0.0098    2.3345 N   0  0  0  0  0  3           0  0  0
   -1.9618    0.6452    8.6400 N   0  0  0  0  0  3           0  0  0
    0.0000    0.0000    0.0000 C   0  0  0  0  0  4           0  0  0
   -2.0235    0.0091    1.1389 C   0  0  0  0  0  4           0  0  0
   -2.0219    0.0198   -1.1683 C   0  0  0  0  0  4           0  0  0
   -0.6420    0.0026   -1.2275 C   0  0  0  0  0  4           0  0  0
   -2.3285    0.0025    3.6648 C   0  0  0  0  0  4           0  0  0
   -1.5412    0.0272    6.3814 C   0  0  0  0  0  4           0  0  0
   -1.1283   -0.5971    4.0713 C   0  0  0  0  0  4           0  0  0
   -3.1253    0.6149    4.6441 C   0  0  0  0  0  4           0  0  0
   -0.7369   -0.5858    5.4146 C   0  0  0  0  0  4           0  0  0
   -2.7401    0.6296    5.9886 C   0  0  0  0  0  4           0  0  0
   -1.0973    0.0160    7.7758 C   0  0  0  0  0  4           0  0  0
    1.9728    0.0000    1.3017 C   0  0  0  0  0  4           0  0  0
    3.4920   -0.0000    1.1548 C   0  0  2  0  0  4           0  0  0
    3.9578    1.2450    0.3876 C   0  0  0  0  0  4           0  0  0
    3.9904   -1.2811    0.4645 C   0  0  0  0  0  4           0  0  0
    5.4728    1.2571    0.1962 C   0  0  0  0  0  4           0  0  0
    5.5050   -1.2645    0.2677 C   0  0  0  0  0  4           0  0  0
    5.9644   -0.0180   -0.4813 C   0  0  0  0  0  4           0  0  0
  1  6  2  0     0  0
  2  9  1  0     0  0
  2 20  1  0     0  0
  3 19  2  0     0  0
  4  9  2  0     0  0
  4 10  1  0     0  0
  5 10  2  0     0  0
  5 11  1  0     0  0
  6 12  1  0     0  0
  7 10  1  0     0  0
  7 13  1  0     0  0
  8 19  1  0     0  0
  9 12  1  0     0  0
 11 12  2  0     0  0
 13 15  2  0     0  0
 13 16  1  0     0  0
 14 17  2  0     0  0
 14 18  1  0     0  0
 14 19  1  0     0  0
 15 17  1  0     0  0
 16 18  2  0     0  0
 20 21  1  0     0  0
 21 22  1  0     0  0
 21 23  1  0     0  0
 22 24  1  0     0  0
 23 25  1  0     0  0
 24 26  1  0     0  0
 25 26  1  0     0  0
M  END
> <Compound >
20

> <standard_type>
pIC50

> <# Confs.>
25

> <canonical_smiles>
O=NC(C(OCC1CCCCC1)=N2)=CN=C2NC3=CC=C(C(N)=O)C=C3

> <standard_relation>
=

> <predicted_activity_value>
7.4179366370882915

> <actual_activity_value>
7.468521082957745

> <Publication ID>
nan

> <standard_units>
nM

> hash
6513432889398524829

$$$$
20_
XXILIB    08252103453D 0   0.00000     0.00000

 26 28  0     1  0            999 V2000
   -0.6283   -0.5507   -3.3157 O   0  0  0  0  0  2           0  0  0
    1.3872   -0.0000    0.0000 O   0  0  0  0  0  2           0  0  0
   -1.6410   -0.4941    8.5944 O   0  0  0  0  0  2           0  0  0
   -0.6679    0.0000    1.1797 N   0  0  0  0  0  3           0  0  0
   -2.7275    0.0201   -0.0166 N   0  0  0  0  0  3           0  0  0
    0.0162    0.0250   -2.4302 N   0  0  0  0  0  3           0  0  0
   -2.7544    0.0098    2.3345 N   0  0  0  0  0  3           0  0  0
    0.2574    0.6541    7.9296 N   0  0  0  0  0  3           0  0  0
    0.0000    0.0000    0.0000 C   0  0  0  0  0  4           0  0  0
   -2.0235    0.0091    1.1389 C   0  0  0  0  0  4           0  0  0
   -2.0219    0.0198   -1.1683 C   0  0  0  0  0  4           0  0  0
   -0.6420    0.0026   -1.2275 C   0  0  0  0  0  4           0  0  0
   -2.3285    0.0025    3.6648 C   0  0  0  0  0  4           0  0  0
   -1.3965    0.0357    6.3351 C   0  0  0  0  0  4           0  0  0
   -3.0754   -0.5863    4.6947 C   0  0  0  0  0  4           0  0  0
   -1.1065    0.6067    3.9978 C   0  0  0  0  0  4           0  0  0
   -2.6160   -0.5711    6.0163 C   0  0  0  0  0  4           0  0  0
   -0.6416    0.6255    5.3168 C   0  0  0  0  0  4           0  0  0
   -0.9520    0.0319    7.7294 C   0  0  0  0  0  4           0  0  0
    1.9728    0.0000    1.3017 C   0  0  0  0  0  4           0  0  0
    3.4920   -0.0000    1.1548 C   0  0  2  0  0  4           0  0  0
    4.1653   -0.0000    2.5341 C   0  0  0  0  0  4           0  0  0
    3.9759    1.1941    0.3145 C   0  0  0  0  0  4           0  0  0
    5.6877    0.0327    2.4198 C   0  0  0  0  0  4           0  0  0
    5.4991    1.2292    0.2069 C   0  0  0  0  0  4           0  0  0
    6.1636    1.2133    1.5795 C   0  0  0  0  0  4           0  0  0
  1  6  2  0     0  0
  2  9  1  0     0  0
  2 20  1  0     0  0
  3 19  2  0     0  0
  4  9  2  0     0  0
  4 10  1  0     0  0
  5 10  2  0     0  0
  5 11  1  0     0  0
  6 12  1  0     0  0
  7 10  1  0     0  0
  7 13  1  0     0  0
  8 19  1  0     0  0
  9 12  1  0     0  0
 11 12  2  0     0  0
 13 15  2  0     0  0
 13 16  1  0     0  0
 14 17  2  0     0  0
 14 18  1  0     0  0
 14 19  1  0     0  0
 15 17  1  0     0  0
 16 18  2  0     0  0
 20 21  1  0     0  0
 21 22  1  0     0  0
 21 23  1  0     0  0
 22 24  1  0     0  0
 23 25  1  0     0  0
 24 26  1  0     0  0
 25 26  1  0     0  0
M  END
> <Compound >
20

> <standard_type>
pIC50

> <# Confs.>
25

> <canonical_smiles>
O=NC(C(OCC1CCCCC1)=N2)=CN=C2NC3=CC=C(C(N)=O)C=C3

> <standard_relation>
=

> <predicted_activity_value>
7.4179366370882915

> <actual_activity_value>
7.468521082957745

> <Publication ID>
nan

> <standard_units>
nM

> hash
6513432889398524829

$$$$
20_
XXILIB    08252103453D 0   0.00000     0.00000

 26 28  0     1  0            999 V2000
   -0.6283   -0.5507   -3.3157 O   0  0  0  0  0  2           0  0  0
    1.3872   -0.0000    0.0000 O   0  0  0  0  0  2           0  0  0
   -1.6238    0.4758    8.5942 O   0  0  0  0  0  2           0  0  0
   -0.6679    0.0000    1.1797 N   0  0  0  0  0  3           0  0  0
   -2.7275    0.0201   -0.0166 N   0  0  0  0  0  3           0  0  0
    0.0162    0.0250   -2.4302 N   0  0  0  0  0  3           0  0  0
   -2.7544    0.0098    2.3345 N   0  0  0  0  0  3           0  0  0
    0.2602   -0.6912    7.9213 N   0  0  0  0  0  3           0  0  0
    0.0000    0.0000    0.0000 C   0  0  0  0  0  4           0  0  0
   -2.0235    0.0091    1.1389 C   0  0  0  0  0  4           0  0  0
   -2.0219    0.0198   -1.1683 C   0  0  0  0  0  4           0  0  0
   -0.6420    0.0026   -1.2275 C   0  0  0  0  0  4           0  0  0
   -2.3285    0.0025    3.6648 C   0  0  0  0  0  4           0  0  0
   -1.3919   -0.0520    6.3332 C   0  0  0  0  0  4           0  0  0
   -3.0676    0.5941    4.6987 C   0  0  0  0  0  4           0  0  0
   -1.1130   -0.6172    3.9931 C   0  0  0  0  0  4           0  0  0
   -2.6061    0.5681    6.0194 C   0  0  0  0  0  4           0  0  0
   -0.6459   -0.6466    5.3112 C   0  0  0  0  0  4           0  0  0
   -0.9434   -0.0562    7.7261 C   0  0  0  0  0  4           0  0  0
    1.9728    0.0000    1.3017 C   0  0  0  0  0  4           0  0  0
    3.4920   -0.0000    1.1548 C   0  0  2  0  0  4           0  0  0
    4.1653   -0.0000    2.5341 C   0  0  0  0  0  4           0  0  0
    3.9759    1.1941    0.3145 C   0  0  0  0  0  4           0  0  0
    5.6877    0.0327    2.4198 C   0  0  0  0  0  4           0  0  0
    5.4991    1.2292    0.2069 C   0  0  0  0  0  4           0  0  0
    6.1636    1.2133    1.5795 C   0  0  0  0  0  4           0  0  0
  1  6  2  0     0  0
  2  9  1  0     0  0
  2 20  1  0     0  0
  3 19  2  0     0  0
  4  9  2  0     0  0
  4 10  1  0     0  0
  5 10  2  0     0  0
  5 11  1  0     0  0
  6 12  1  0     0  0
  7 10  1  0     0  0
  7 13  1  0     0  0
  8 19  1  0     0  0
  9 12  1  0     0  0
 11 12  2  0     0  0
 13 15  2  0     0  0
 13 16  1  0     0  0
 14 17  2  0     0  0
 14 18  1  0     0  0
 14 19  1  0     0  0
 15 17  1  0     0  0
 16 18  2  0     0  0
 20 21  1  0     0  0
 21 22  1  0     0  0
 21 23  1  0     0  0
 22 24  1  0     0  0
 23 25  1  0     0  0
 24 26  1  0     0  0
 25 26  1  0     0  0
M  END
> <Compound >
20

> <standard_type>
pIC50

> <# Confs.>
25

> <canonical_smiles>
O=NC(C(OCC1CCCCC1)=N2)=CN=C2NC3=CC=C(C(N)=O)C=C3

> <standard_relation>
=

> <predicted_activity_value>
7.4179366370882915

> <actual_activity_value>
7.468521082957745

> <Publication ID>
nan

> <standard_units>
nM

> hash
6513432889398524829

$$$$
20_
XXILIB    08252103453D 0   0.00000     0.00000

 26 28  0     1  0            999 V2000
   -0.6283   -0.5507   -3.3157 O   0  0  0  0  0  2           0  0  0
    1.3872   -0.0000    0.0000 O   0  0  0  0  0  2           0  0  0
   -1.6410   -0.4941    8.5944 O   0  0  0  0  0  2           0  0  0
   -0.6679    0.0000    1.1797 N   0  0  0  0  0  3           0  0  0
   -2.7275    0.0201   -0.0166 N   0  0  0  0  0  3           0  0  0
    0.0162    0.0250   -2.4302 N   0  0  0  0  0  3           0  0  0
   -2.7544    0.0098    2.3345 N   0  0  0  0  0  3           0  0  0
    0.2574    0.6541    7.9296 N   0  0  0  0  0  3           0  0  0
    0.0000    0.0000    0.0000 C   0  0  0  0  0  4           0  0  0
   -2.0235    0.0091    1.1389 C   0  0  0  0  0  4           0  0  0
   -2.0219    0.0198   -1.1683 C   0  0  0  0  0  4           0  0  0
   -0.6420    0.0026   -1.2275 C   0  0  0  0  0  4           0  0  0
   -2.3285    0.0025    3.6648 C   0  0  0  0  0  4           0  0  0
   -1.3965    0.0357    6.3351 C   0  0  0  0  0  4           0  0  0
   -3.0754   -0.5863    4.6947 C   0  0  0  0  0  4           0  0  0
   -1.1065    0.6067    3.9978 C   0  0  0  0  0  4           0  0  0
   -2.6160   -0.5711    6.0163 C   0  0  0  0  0  4           0  0  0
   -0.6416    0.6255    5.3168 C   0  0  0  0  0  4           0  0  0
   -0.9520    0.0319    7.7294 C   0  0  0  0  0  4           0  0  0
    1.9728    0.0000    1.3017 C   0  0  0  0  0  4           0  0  0
    3.4920   -0.0000    1.1548 C   0  0  2  0  0  4           0  0  0
    3.9578   -1.2450    0.3876 C   0  0  0  0  0  4           0  0  0
    4.1894    0.0870    2.5231 C   0  0  0  0  0  4           0  0  0
    5.4782   -1.2898    0.2526 C   0  0  0  0  0  4           0  0  0
    5.7099    0.0353    2.3868 C   0  0  0  0  0  4           0  0  0
    6.1666   -1.1953    1.6105 C   0  0  0  0  0  4           0  0  0
  1  6  2  0     0  0
  2  9  1  0     0  0
  2 20  1  0     0  0
  3 19  2  0     0  0
  4  9  2  0     0  0
  4 10  1  0     0  0
  5 10  2  0     0  0
  5 11  1  0     0  0
  6 12  1  0     0  0
  7 10  1  0     0  0
  7 13  1  0     0  0
  8 19  1  0     0  0
  9 12  1  0     0  0
 11 12  2  0     0  0
 13 15  2  0     0  0
 13 16  1  0     0  0
 14 17  2  0     0  0
 14 18  1  0     0  0
 14 19  1  0     0  0
 15 17  1  0     0  0
 16 18  2  0     0  0
 20 21  1  0     0  0
 21 22  1  0     0  0
 21 23  1  0     0  0
 22 24  1  0     0  0
 23 25  1  0     0  0
 24 26  1  0     0  0
 25 26  1  0     0  0
M  END
> <Compound >
20

> <standard_type>
pIC50

> <# Confs.>
25

> <canonical_smiles>
O=NC(C(OCC1CCCCC1)=N2)=CN=C2NC3=CC=C(C(N)=O)C=C3

> <standard_relation>
=

> <predicted_activity_value>
7.4179366370882915

> <actual_activity_value>
7.468521082957745

> <Publication ID>
nan

> <standard_units>
nM

> hash
6513432889398524829

$$$$
20_
XXILIB    08252103453D 0   0.00000     0.00000

 26 28  0     1  0            999 V2000
   -0.6283   -0.5507   -3.3157 O   0  0  0  0  0  2           0  0  0
    1.3872   -0.0000    0.0000 O   0  0  0  0  0  2           0  0  0
   -1.6238    0.4758    8.5942 O   0  0  0  0  0  2           0  0  0
   -0.6679    0.0000    1.1797 N   0  0  0  0  0  3           0  0  0
   -2.7275    0.0201   -0.0166 N   0  0  0  0  0  3           0  0  0
    0.0162    0.0250   -2.4302 N   0  0  0  0  0  3           0  0  0
   -2.7544    0.0098    2.3345 N   0  0  0  0  0  3           0  0  0
    0.2602   -0.6912    7.9213 N   0  0  0  0  0  3           0  0  0
    0.0000    0.0000    0.0000 C   0  0  0  0  0  4           0  0  0
   -2.0235    0.0091    1.1389 C   0  0  0  0  0  4           0  0  0
   -2.0219    0.0198   -1.1683 C   0  0  0  0  0  4           0  0  0
   -0.6420    0.0026   -1.2275 C   0  0  0  0  0  4           0  0  0
   -2.3285    0.0025    3.6648 C   0  0  0  0  0  4           0  0  0
   -1.3919   -0.0520    6.3332 C   0  0  0  0  0  4           0  0  0
   -3.0676    0.5941    4.6987 C   0  0  0  0  0  4           0  0  0
   -1.1130   -0.6172    3.9931 C   0  0  0  0  0  4           0  0  0
   -2.6061    0.5681    6.0194 C   0  0  0  0  0  4           0  0  0
   -0.6459   -0.6466    5.3112 C   0  0  0  0  0  4           0  0  0
   -0.9434   -0.0562    7.7261 C   0  0  0  0  0  4           0  0  0
    1.9728    0.0000    1.3017 C   0  0  0  0  0  4           0  0  0
    3.4920   -0.0000    1.1548 C   0  0  2  0  0  4           0  0  0
    3.9578   -1.2450    0.3876 C   0  0  0  0  0  4           0  0  0
    4.1894    0.0870    2.5231 C   0  0  0  0  0  4           0  0  0
    5.4782   -1.2898    0.2526 C   0  0  0  0  0  4           0  0  0
    5.7099    0.0353    2.3868 C   0  0  0  0  0  4           0  0  0
    6.1666   -1.1953    1.6105 C   0  0  0  0  0  4           0  0  0
  1  6  2  0     0  0
  2  9  1  0     0  0
  2 20  1  0     0  0
  3 19  2  0     0  0
  4  9  2  0     0  0
  4 10  1  0     0  0
  5 10  2  0     0  0
  5 11  1  0     0  0
  6 12  1  0     0  0
  7 10  1  0     0  0
  7 13  1  0     0  0
  8 19  1  0     0  0
  9 12  1  0     0  0
 11 12  2  0     0  0
 13 15  2  0     0  0
 13 16  1  0     0  0
 14 17  2  0     0  0
 14 18  1  0     0  0
 14 19  1  0     0  0
 15 17  1  0     0  0
 16 18  2  0     0  0
 20 21  1  0     0  0
 21 22  1  0     0  0
 21 23  1  0     0  0
 22 24  1  0     0  0
 23 25  1  0     0  0
 24 26  1  0     0  0
 25 26  1  0     0  0
M  END
> <Compound >
20

> <standard_type>
pIC50

> <# Confs.>
25

> <canonical_smiles>
O=NC(C(OCC1CCCCC1)=N2)=CN=C2NC3=CC=C(C(N)=O)C=C3

> <standard_relation>
=

> <predicted_activity_value>
7.4179366370882915

> <actual_activity_value>
7.468521082957745

> <Publication ID>
nan

> <standard_units>
nM

> hash
6513432889398524829

$$$$
20_
XXILIB    08252103453D 0   0.00000     0.00000

 26 28  0     1  0            999 V2000
   -0.6283   -0.5507   -3.3157 O   0  0  0  0  0  2           0  0  0
    1.3872   -0.0000    0.0000 O   0  0  0  0  0  2           0  0  0
   -0.0238    0.4475    8.0818 O   0  0  0  0  0  2           0  0  0
   -0.6679    0.0000    1.1797 N   0  0  0  0  0  3           0  0  0
   -2.7275    0.0201   -0.0166 N   0  0  0  0  0  3           0  0  0
    0.0162    0.0250   -2.4302 N   0  0  0  0  0  3           0  0  0
   -2.7544    0.0098    2.3345 N   0  0  0  0  0  3           0  0  0
   -1.9590   -0.7001    8.6317 N   0  0  0  0  0  3           0  0  0
    0.0000    0.0000    0.0000 C   0  0  0  0  0  4           0  0  0
   -2.0235    0.0091    1.1389 C   0  0  0  0  0  4           0  0  0
   -2.0219    0.0198   -1.1683 C   0  0  0  0  0  4           0  0  0
   -0.6420    0.0026   -1.2275 C   0  0  0  0  0  4           0  0  0
   -2.3285    0.0025    3.6648 C   0  0  0  0  0  4           0  0  0
   -1.5366   -0.0605    6.3795 C   0  0  0  0  0  4           0  0  0
   -1.1205    0.5833    4.0753 C   0  0  0  0  0  4           0  0  0
   -3.1318   -0.6089    4.6395 C   0  0  0  0  0  4           0  0  0
   -0.7270    0.5534    5.4178 C   0  0  0  0  0  4           0  0  0
   -2.7444   -0.6425    5.9830 C   0  0  0  0  0  4           0  0  0
   -1.0887   -0.0721    7.7726 C   0  0  0  0  0  4           0  0  0
    1.9728    0.0000    1.3017 C   0  0  0  0  0  4           0  0  0
    3.4920   -0.0000    1.1548 C   0  0  2  0  0  4           0  0  0
    3.9802    1.2386    0.3892 C   0  0  0  0  0  4           0  0  0
    4.2149   -0.1136    2.5092 C   0  0  0  0  0  4           0  0  0
    3.8936    2.5208    1.2155 C   0  0  0  0  0  4           0  0  0
    4.1344    1.1680    3.3375 C   0  0  0  0  0  4           0  0  0
    4.6233    2.3784    2.5478 C   0  0  0  0  0  4           0  0  0
  1  6  2  0     0  0
  2  9  1  0     0  0
  2 20  1  0     0  0
  3 19  2  0     0  0
  4  9  2  0     0  0
  4 10  1  0     0  0
  5 10  2  0     0  0
  5 11  1  0     0  0
  6 12  1  0     0  0
  7 10  1  0     0  0
  7 13  1  0     0  0
  8 19  1  0     0  0
  9 12  1  0     0  0
 11 12  2  0     0  0
 13 15  2  0     0  0
 13 16  1  0     0  0
 14 17  2  0     0  0
 14 18  1  0     0  0
 14 19  1  0     0  0
 15 17  1  0     0  0
 16 18  2  0     0  0
 20 21  1  0     0  0
 21 22  1  0     0  0
 21 23  1  0     0  0
 22 24  1  0     0  0
 23 25  1  0     0  0
 24 26  1  0     0  0
 25 26  1  0     0  0
M  END
> <Compound >
20

> <standard_type>
pIC50

> <# Confs.>
25

> <canonical_smiles>
O=NC(C(OCC1CCCCC1)=N2)=CN=C2NC3=CC=C(C(N)=O)C=C3

> <standard_relation>
=

> <predicted_activity_value>
7.4179366370882915

> <actual_activity_value>
7.468521082957745

> <Publication ID>
nan

> <standard_units>
nM

> hash
6513432889398524829

$$$$
20_
XXILIB    08252103453D 0   0.00000     0.00000

 26 28  0     1  0            999 V2000
   -0.6283   -0.5507   -3.3157 O   0  0  0  0  0  2           0  0  0
    1.3872   -0.0000    0.0000 O   0  0  0  0  0  2           0  0  0
   -0.0410   -0.5225    8.0820 O   0  0  0  0  0  2           0  0  0
   -0.6679    0.0000    1.1797 N   0  0  0  0  0  3           0  0  0
   -2.7275    0.0201   -0.0166 N   0  0  0  0  0  3           0  0  0
    0.0162    0.0250   -2.4302 N   0  0  0  0  0  3           0  0  0
   -2.7544    0.0098    2.3345 N   0  0  0  0  0  3           0  0  0
   -1.9618    0.6452    8.6400 N   0  0  0  0  0  3           0  0  0
    0.0000    0.0000    0.0000 C   0  0  0  0  0  4           0  0  0
   -2.0235    0.0091    1.1389 C   0  0  0  0  0  4           0  0  0
   -2.0219    0.0198   -1.1683 C   0  0  0  0  0  4           0  0  0
   -0.6420    0.0026   -1.2275 C   0  0  0  0  0  4           0  0  0
   -2.3285    0.0025    3.6648 C   0  0  0  0  0  4           0  0  0
   -1.5412    0.0272    6.3814 C   0  0  0  0  0  4           0  0  0
   -1.1283   -0.5971    4.0713 C   0  0  0  0  0  4           0  0  0
   -3.1253    0.6149    4.6441 C   0  0  0  0  0  4           0  0  0
   -0.7369   -0.5858    5.4146 C   0  0  0  0  0  4           0  0  0
   -2.7401    0.6296    5.9886 C   0  0  0  0  0  4           0  0  0
   -1.0973    0.0160    7.7758 C   0  0  0  0  0  4           0  0  0
    1.9728    0.0000    1.3017 C   0  0  0  0  0  4           0  0  0
    3.4920   -0.0000    1.1548 C   0  0  2  0  0  4           0  0  0
    4.1867   -0.0000    2.5246 C   0  0  0  0  0  4           0  0  0
    4.0008   -1.1709    0.2946 C   0  0  0  0  0  4           0  0  0
    4.0894   -1.3462    3.2405 C   0  0  0  0  0  4           0  0  0
    3.9092   -2.5190    1.0083 C   0  0  0  0  0  4           0  0  0
    4.6056   -2.4842    2.3654 C   0  0  0  0  0  4           0  0  0
  1  6  2  0     0  0
  2  9  1  0     0  0
  2 20  1  0     0  0
  3 19  2  0     0  0
  4  9  2  0     0  0
  4 10  1  0     0  0
  5 10  2  0     0  0
  5 11  1  0     0  0
  6 12  1  0     0  0
  7 10  1  0     0  0
  7 13  1  0     0  0
  8 19  1  0     0  0
  9 12  1  0     0  0
 11 12  2  0     0  0
 13 15  2  0     0  0
 13 16  1  0     0  0
 14 17  2  0     0  0
 14 18  1  0     0  0
 14 19  1  0     0  0
 15 17  1  0     0  0
 16 18  2  0     0  0
 20 21  1  0     0  0
 21 22  1  0     0  0
 21 23  1  0     0  0
 22 24  1  0     0  0
 23 25  1  0     0  0
 24 26  1  0     0  0
 25 26  1  0     0  0
M  END
> <Compound >
20

> <standard_type>
pIC50

> <# Confs.>
25

> <canonical_smiles>
O=NC(C(OCC1CCCCC1)=N2)=CN=C2NC3=CC=C(C(N)=O)C=C3

> <standard_relation>
=

> <predicted_activity_value>
7.4179366370882915

> <actual_activity_value>
7.468521082957745

> <Publication ID>
nan

> <standard_units>
nM

> hash
6513432889398524829

$$$$
20_
XXILIB    08252103453D 0   0.00000     0.00000

 26 28  0     1  0            999 V2000
   -0.6283   -0.5507   -3.3157 O   0  0  0  0  0  2           0  0  0
    1.3872   -0.0000    0.0000 O   0  0  0  0  0  2           0  0  0
   -0.0238    0.4475    8.0818 O   0  0  0  0  0  2           0  0  0
   -0.6679    0.0000    1.1797 N   0  0  0  0  0  3           0  0  0
   -2.7275    0.0201   -0.0166 N   0  0  0  0  0  3           0  0  0
    0.0162    0.0250   -2.4302 N   0  0  0  0  0  3           0  0  0
   -2.7544    0.0098    2.3345 N   0  0  0  0  0  3           0  0  0
   -1.9590   -0.7001    8.6317 N   0  0  0  0  0  3           0  0  0
    0.0000    0.0000    0.0000 C   0  0  0  0  0  4           0  0  0
   -2.0235    0.0091    1.1389 C   0  0  0  0  0  4           0  0  0
   -2.0219    0.0198   -1.1683 C   0  0  0  0  0  4           0  0  0
   -0.6420    0.0026   -1.2275 C   0  0  0  0  0  4           0  0  0
   -2.3285    0.0025    3.6648 C   0  0  0  0  0  4           0  0  0
   -1.5366   -0.0605    6.3795 C   0  0  0  0  0  4           0  0  0
   -1.1205    0.5833    4.0753 C   0  0  0  0  0  4           0  0  0
   -3.1318   -0.6089    4.6395 C   0  0  0  0  0  4           0  0  0
   -0.7270    0.5534    5.4178 C   0  0  0  0  0  4           0  0  0
   -2.7444   -0.6425    5.9830 C   0  0  0  0  0  4           0  0  0
   -1.0887   -0.0721    7.7726 C   0  0  0  0  0  4           0  0  0
    1.9728    0.0000    1.3017 C   0  0  0  0  0  4           0  0  0
    3.4920   -0.0000    1.1548 C   0  0  2  0  0  4           0  0  0
    4.1867   -0.0000    2.5246 C   0  0  0  0  0  4           0  0  0
    4.0008   -1.1709    0.2946 C   0  0  0  0  0  4           0  0  0
    4.0894   -1.3462    3.2405 C   0  0  0  0  0  4           0  0  0
    3.9092   -2.5190    1.0083 C   0  0  0  0  0  4           0  0  0
    4.6056   -2.4842    2.3654 C   0  0  0  0  0  4           0  0  0
  1  6  2  0     0  0
  2  9  1  0     0  0
  2 20  1  0     0  0
  3 19  2  0     0  0
  4  9  2  0     0  0
  4 10  1  0     0  0
  5 10  2  0     0  0
  5 11  1  0     0  0
  6 12  1  0     0  0
  7 10  1  0     0  0
  7 13  1  0     0  0
  8 19  1  0     0  0
  9 12  1  0     0  0
 11 12  2  0     0  0
 13 15  2  0     0  0
 13 16  1  0     0  0
 14 17  2  0     0  0
 14 18  1  0     0  0
 14 19  1  0     0  0
 15 17  1  0     0  0
 16 18  2  0     0  0
 20 21  1  0     0  0
 21 22  1  0     0  0
 21 23  1  0     0  0
 22 24  1  0     0  0
 23 25  1  0     0  0
 24 26  1  0     0  0
 25 26  1  0     0  0
M  END
> <Compound >
20

> <standard_type>
pIC50

> <# Confs.>
25

> <canonical_smiles>
O=NC(C(OCC1CCCCC1)=N2)=CN=C2NC3=CC=C(C(N)=O)C=C3

> <standard_relation>
=

> <predicted_activity_value>
7.4179366370882915

> <actual_activity_value>
7.468521082957745

> <Publication ID>
nan

> <standard_units>
nM

> hash
6513432889398524829

$$$$
20_
XXILIB    08252103453D 0   0.00000     0.00000

 26 28  0     1  0            999 V2000
   -0.6283   -0.5507   -3.3157 O   0  0  0  0  0  2           0  0  0
    1.3872   -0.0000    0.0000 O   0  0  0  0  0  2           0  0  0
   -0.0410   -0.5225    8.0820 O   0  0  0  0  0  2           0  0  0
   -0.6679    0.0000    1.1797 N   0  0  0  0  0  3           0  0  0
   -2.7275    0.0201   -0.0166 N   0  0  0  0  0  3           0  0  0
    0.0162    0.0250   -2.4302 N   0  0  0  0  0  3           0  0  0
   -2.7544    0.0098    2.3345 N   0  0  0  0  0  3           0  0  0
   -1.9618    0.6452    8.6400 N   0  0  0  0  0  3           0  0  0
    0.0000    0.0000    0.0000 C   0  0  0  0  0  4           0  0  0
   -2.0235    0.0091    1.1389 C   0  0  0  0  0  4           0  0  0
   -2.0219    0.0198   -1.1683 C   0  0  0  0  0  4           0  0  0
   -0.6420    0.0026   -1.2275 C   0  0  0  0  0  4           0  0  0
   -2.3285    0.0025    3.6648 C   0  0  0  0  0  4           0  0  0
   -1.5412    0.0272    6.3814 C   0  0  0  0  0  4           0  0  0
   -1.1283   -0.5971    4.0713 C   0  0  0  0  0  4           0  0  0
   -3.1253    0.6149    4.6441 C   0  0  0  0  0  4           0  0  0
   -0.7369   -0.5858    5.4146 C   0  0  0  0  0  4           0  0  0
   -2.7401    0.6296    5.9886 C   0  0  0  0  0  4           0  0  0
   -1.0973    0.0160    7.7758 C   0  0  0  0  0  4           0  0  0
    1.9728    0.0000    1.3017 C   0  0  0  0  0  4           0  0  0
    3.4920   -0.0000    1.1548 C   0  0  2  0  0  4           0  0  0
    3.9802    1.2386    0.3892 C   0  0  0  0  0  4           0  0  0
    4.2149   -0.1136    2.5092 C   0  0  0  0  0  4           0  0  0
    3.8936    2.5208    1.2155 C   0  0  0  0  0  4           0  0  0
    4.1344    1.1680    3.3375 C   0  0  0  0  0  4           0  0  0
    4.6233    2.3784    2.5478 C   0  0  0  0  0  4           0  0  0
  1  6  2  0     0  0
  2  9  1  0     0  0
  2 20  1  0     0  0
  3 19  2  0     0  0
  4  9  2  0     0  0
  4 10  1  0     0  0
  5 10  2  0     0  0
  5 11  1  0     0  0
  6 12  1  0     0  0
  7 10  1  0     0  0
  7 13  1  0     0  0
  8 19  1  0     0  0
  9 12  1  0     0  0
 11 12  2  0     0  0
 13 15  2  0     0  0
 13 16  1  0     0  0
 14 17  2  0     0  0
 14 18  1  0     0  0
 14 19  1  0     0  0
 15 17  1  0     0  0
 16 18  2  0     0  0
 20 21  1  0     0  0
 21 22  1  0     0  0
 21 23  1  0     0  0
 22 24  1  0     0  0
 23 25  1  0     0  0
 24 26  1  0     0  0
 25 26  1  0     0  0
M  END
> <Compound >
20

> <standard_type>
pIC50

> <# Confs.>
25

> <canonical_smiles>
O=NC(C(OCC1CCCCC1)=N2)=CN=C2NC3=CC=C(C(N)=O)C=C3

> <standard_relation>
=

> <predicted_activity_value>
7.4179366370882915

> <actual_activity_value>
7.468521082957745

> <Publication ID>
nan

> <standard_units>
nM

> hash
6513432889398524829

$$$$
20_
XXILIB    08252103453D 0   0.00000     0.00000

 26 28  0     1  0            999 V2000
   -0.6283   -0.5507   -3.3157 O   0  0  0  0  0  2           0  0  0
    1.3872   -0.0000    0.0000 O   0  0  0  0  0  2           0  0  0
   -1.6410   -0.4941    8.5944 O   0  0  0  0  0  2           0  0  0
   -0.6679    0.0000    1.1797 N   0  0  0  0  0  3           0  0  0
   -2.7275    0.0201   -0.0166 N   0  0  0  0  0  3           0  0  0
    0.0162    0.0250   -2.4302 N   0  0  0  0  0  3           0  0  0
   -2.7544    0.0098    2.3345 N   0  0  0  0  0  3           0  0  0
    0.2574    0.6541    7.9296 N   0  0  0  0  0  3           0  0  0
    0.0000    0.0000    0.0000 C   0  0  0  0  0  4           0  0  0
   -2.0235    0.0091    1.1389 C   0  0  0  0  0  4           0  0  0
   -2.0219    0.0198   -1.1683 C   0  0  0  0  0  4           0  0  0
   -0.6420    0.0026   -1.2275 C   0  0  0  0  0  4           0  0  0
   -2.3285    0.0025    3.6648 C   0  0  0  0  0  4           0  0  0
   -1.3965    0.0357    6.3351 C   0  0  0  0  0  4           0  0  0
   -3.0754   -0.5863    4.6947 C   0  0  0  0  0  4           0  0  0
   -1.1065    0.6067    3.9978 C   0  0  0  0  0  4           0  0  0
   -2.6160   -0.5711    6.0163 C   0  0  0  0  0  4           0  0  0
   -0.6416    0.6255    5.3168 C   0  0  0  0  0  4           0  0  0
   -0.9520    0.0319    7.7294 C   0  0  0  0  0  4           0  0  0
    1.9728    0.0000    1.3017 C   0  0  0  0  0  4           0  0  0
    3.4920   -0.0000    1.1548 C   0  0  2  0  0  4           0  0  0
    3.9578    1.2450    0.3876 C   0  0  0  0  0  4           0  0  0
    3.9904   -1.2811    0.4645 C   0  0  0  0  0  4           0  0  0
    5.4728    1.2571    0.1962 C   0  0  0  0  0  4           0  0  0
    5.5050   -1.2645    0.2677 C   0  0  0  0  0  4           0  0  0
    5.9644   -0.0180   -0.4813 C   0  0  0  0  0  4           0  0  0
  1  6  2  0     0  0
  2  9  1  0     0  0
  2 20  1  0     0  0
  3 19  2  0     0  0
  4  9  2  0     0  0
  4 10  1  0     0  0
  5 10  2  0     0  0
  5 11  1  0     0  0
  6 12  1  0     0  0
  7 10  1  0     0  0
  7 13  1  0     0  0
  8 19  1  0     0  0
  9 12  1  0     0  0
 11 12  2  0     0  0
 13 15  2  0     0  0
 13 16  1  0     0  0
 14 17  2  0     0  0
 14 18  1  0     0  0
 14 19  1  0     0  0
 15 17  1  0     0  0
 16 18  2  0     0  0
 20 21  1  0     0  0
 21 22  1  0     0  0
 21 23  1  0     0  0
 22 24  1  0     0  0
 23 25  1  0     0  0
 24 26  1  0     0  0
 25 26  1  0     0  0
M  END
> <Compound >
20

> <standard_type>
pIC50

> <# Confs.>
25

> <canonical_smiles>
O=NC(C(OCC1CCCCC1)=N2)=CN=C2NC3=CC=C(C(N)=O)C=C3

> <standard_relation>
=

> <predicted_activity_value>
7.4179366370882915

> <actual_activity_value>
7.468521082957745

> <Publication ID>
nan

> <standard_units>
nM

> hash
6513432889398524829

$$$$
20_
XXILIB    08252103453D 0   0.00000     0.00000

 26 28  0     1  0            999 V2000
   -0.6283   -0.5507   -3.3157 O   0  0  0  0  0  2           0  0  0
    1.3872   -0.0000    0.0000 O   0  0  0  0  0  2           0  0  0
   -1.6238    0.4758    8.5942 O   0  0  0  0  0  2           0  0  0
   -0.6679    0.0000    1.1797 N   0  0  0  0  0  3           0  0  0
   -2.7275    0.0201   -0.0166 N   0  0  0  0  0  3           0  0  0
    0.0162    0.0250   -2.4302 N   0  0  0  0  0  3           0  0  0
   -2.7544    0.0098    2.3345 N   0  0  0  0  0  3           0  0  0
    0.2602   -0.6912    7.9213 N   0  0  0  0  0  3           0  0  0
    0.0000    0.0000    0.0000 C   0  0  0  0  0  4           0  0  0
   -2.0235    0.0091    1.1389 C   0  0  0  0  0  4           0  0  0
   -2.0219    0.0198   -1.1683 C   0  0  0  0  0  4           0  0  0
   -0.6420    0.0026   -1.2275 C   0  0  0  0  0  4           0  0  0
   -2.3285    0.0025    3.6648 C   0  0  0  0  0  4           0  0  0
   -1.3919   -0.0520    6.3332 C   0  0  0  0  0  4           0  0  0
   -3.0676    0.5941    4.6987 C   0  0  0  0  0  4           0  0  0
   -1.1130   -0.6172    3.9931 C   0  0  0  0  0  4           0  0  0
   -2.6061    0.5681    6.0194 C   0  0  0  0  0  4           0  0  0
   -0.6459   -0.6466    5.3112 C   0  0  0  0  0  4           0  0  0
   -0.9434   -0.0562    7.7261 C   0  0  0  0  0  4           0  0  0
    1.9728    0.0000    1.3017 C   0  0  0  0  0  4           0  0  0
    3.4920   -0.0000    1.1548 C   0  0  2  0  0  4           0  0  0
    3.9578    1.2450    0.3876 C   0  0  0  0  0  4           0  0  0
    3.9904   -1.2811    0.4645 C   0  0  0  0  0  4           0  0  0
    5.4728    1.2571    0.1962 C   0  0  0  0  0  4           0  0  0
    5.5050   -1.2645    0.2677 C   0  0  0  0  0  4           0  0  0
    5.9644   -0.0180   -0.4813 C   0  0  0  0  0  4           0  0  0
  1  6  2  0     0  0
  2  9  1  0     0  0
  2 20  1  0     0  0
  3 19  2  0     0  0
  4  9  2  0     0  0
  4 10  1  0     0  0
  5 10  2  0     0  0
  5 11  1  0     0  0
  6 12  1  0     0  0
  7 10  1  0     0  0
  7 13  1  0     0  0
  8 19  1  0     0  0
  9 12  1  0     0  0
 11 12  2  0     0  0
 13 15  2  0     0  0
 13 16  1  0     0  0
 14 17  2  0     0  0
 14 18  1  0     0  0
 14 19  1  0     0  0
 15 17  1  0     0  0
 16 18  2  0     0  0
 20 21  1  0     0  0
 21 22  1  0     0  0
 21 23  1  0     0  0
 22 24  1  0     0  0
 23 25  1  0     0  0
 24 26  1  0     0  0
 25 26  1  0     0  0
M  END
> <Compound >
20

> <standard_type>
pIC50

> <# Confs.>
25

> <canonical_smiles>
O=NC(C(OCC1CCCCC1)=N2)=CN=C2NC3=CC=C(C(N)=O)C=C3

> <standard_relation>
=

> <predicted_activity_value>
7.4179366370882915

> <actual_activity_value>
7.468521082957745

> <Publication ID>
nan

> <standard_units>
nM

> hash
6513432889398524829

$$$$
20_
XXILIB    08252103453D 0   0.00000     0.00000

 26 28  0     1  0            999 V2000
   -0.6283   -0.5507   -3.3157 O   0  0  0  0  0  2           0  0  0
    1.3872   -0.0000    0.0000 O   0  0  0  0  0  2           0  0  0
   -0.0238    0.4475    8.0818 O   0  0  0  0  0  2           0  0  0
   -0.6679    0.0000    1.1797 N   0  0  0  0  0  3           0  0  0
   -2.7275    0.0201   -0.0166 N   0  0  0  0  0  3           0  0  0
    0.0162    0.0250   -2.4302 N   0  0  0  0  0  3           0  0  0
   -2.7544    0.0098    2.3345 N   0  0  0  0  0  3           0  0  0
   -1.9590   -0.7001    8.6317 N   0  0  0  0  0  3           0  0  0
    0.0000    0.0000    0.0000 C   0  0  0  0  0  4           0  0  0
   -2.0235    0.0091    1.1389 C   0  0  0  0  0  4           0  0  0
   -2.0219    0.0198   -1.1683 C   0  0  0  0  0  4           0  0  0
   -0.6420    0.0026   -1.2275 C   0  0  0  0  0  4           0  0  0
   -2.3285    0.0025    3.6648 C   0  0  0  0  0  4           0  0  0
   -1.5366   -0.0605    6.3795 C   0  0  0  0  0  4           0  0  0
   -1.1205    0.5833    4.0753 C   0  0  0  0  0  4           0  0  0
   -3.1318   -0.6089    4.6395 C   0  0  0  0  0  4           0  0  0
   -0.7270    0.5534    5.4178 C   0  0  0  0  0  4           0  0  0
   -2.7444   -0.6425    5.9830 C   0  0  0  0  0  4           0  0  0
   -1.0887   -0.0721    7.7726 C   0  0  0  0  0  4           0  0  0
    1.9728    0.0000    1.3017 C   0  0  0  0  0  4           0  0  0
    3.4920   -0.0000    1.1548 C   0  0  2  0  0  4           0  0  0
    4.0205   -1.2269    0.3921 C   0  0  0  0  0  4           0  0  0
    4.2234    0.1830    2.4956 C   0  0  0  0  0  4           0  0  0
    4.1494   -2.4909    1.2390 C   0  0  0  0  0  4           0  0  0
    4.3489   -1.0917    3.3266 C   0  0  0  0  0  4           0  0  0
    4.9406   -2.2379    2.5161 C   0  0  0  0  0  4           0  0  0
  1  6  2  0     0  0
  2  9  1  0     0  0
  2 20  1  0     0  0
  3 19  2  0     0  0
  4  9  2  0     0  0
  4 10  1  0     0  0
  5 10  2  0     0  0
  5 11  1  0     0  0
  6 12  1  0     0  0
  7 10  1  0     0  0
  7 13  1  0     0  0
  8 19  1  0     0  0
  9 12  1  0     0  0
 11 12  2  0     0  0
 13 15  2  0     0  0
 13 16  1  0     0  0
 14 17  2  0     0  0
 14 18  1  0     0  0
 14 19  1  0     0  0
 15 17  1  0     0  0
 16 18  2  0     0  0
 20 21  1  0     0  0
 21 22  1  0     0  0
 21 23  1  0     0  0
 22 24  1  0     0  0
 23 25  1  0     0  0
 24 26  1  0     0  0
 25 26  1  0     0  0
M  END
> <Compound >
20

> <standard_type>
pIC50

> <# Confs.>
25

> <canonical_smiles>
O=NC(C(OCC1CCCCC1)=N2)=CN=C2NC3=CC=C(C(N)=O)C=C3

> <standard_relation>
=

> <predicted_activity_value>
7.4179366370882915

> <actual_activity_value>
7.468521082957745

> <Publication ID>
nan

> <standard_units>
nM

> hash
6513432889398524829

$$$$
20_
XXILIB    08252103453D 0   0.00000     0.00000

 26 28  0     1  0            999 V2000
   -0.6283   -0.5507   -3.3157 O   0  0  0  0  0  2           0  0  0
    1.3872   -0.0000    0.0000 O   0  0  0  0  0  2           0  0  0
   -0.0410   -0.5225    8.0820 O   0  0  0  0  0  2           0  0  0
   -0.6679    0.0000    1.1797 N   0  0  0  0  0  3           0  0  0
   -2.7275    0.0201   -0.0166 N   0  0  0  0  0  3           0  0  0
    0.0162    0.0250   -2.4302 N   0  0  0  0  0  3           0  0  0
   -2.7544    0.0098    2.3345 N   0  0  0  0  0  3           0  0  0
   -1.9618    0.6452    8.6400 N   0  0  0  0  0  3           0  0  0
    0.0000    0.0000    0.0000 C   0  0  0  0  0  4           0  0  0
   -2.0235    0.0091    1.1389 C   0  0  0  0  0  4           0  0  0
   -2.0219    0.0198   -1.1683 C   0  0  0  0  0  4           0  0  0
   -0.6420    0.0026   -1.2275 C   0  0  0  0  0  4           0  0  0
   -2.3285    0.0025    3.6648 C   0  0  0  0  0  4           0  0  0
   -1.5412    0.0272    6.3814 C   0  0  0  0  0  4           0  0  0
   -1.1283   -0.5971    4.0713 C   0  0  0  0  0  4           0  0  0
   -3.1253    0.6149    4.6441 C   0  0  0  0  0  4           0  0  0
   -0.7369   -0.5858    5.4146 C   0  0  0  0  0  4           0  0  0
   -2.7401    0.6296    5.9886 C   0  0  0  0  0  4           0  0  0
   -1.0973    0.0160    7.7758 C   0  0  0  0  0  4           0  0  0
    1.9728    0.0000    1.3017 C   0  0  0  0  0  4           0  0  0
    3.4920   -0.0000    1.1548 C   0  0  2  0  0  4           0  0  0
    4.0205   -1.2269    0.3921 C   0  0  0  0  0  4           0  0  0
    4.2234    0.1830    2.4956 C   0  0  0  0  0  4           0  0  0
    4.1494   -2.4909    1.2390 C   0  0  0  0  0  4           0  0  0
    4.3489   -1.0917    3.3266 C   0  0  0  0  0  4           0  0  0
    4.9406   -2.2379    2.5161 C   0  0  0  0  0  4           0  0  0
  1  6  2  0     0  0
  2  9  1  0     0  0
  2 20  1  0     0  0
  3 19  2  0     0  0
  4  9  2  0     0  0
  4 10  1  0     0  0
  5 10  2  0     0  0
  5 11  1  0     0  0
  6 12  1  0     0  0
  7 10  1  0     0  0
  7 13  1  0     0  0
  8 19  1  0     0  0
  9 12  1  0     0  0
 11 12  2  0     0  0
 13 15  2  0     0  0
 13 16  1  0     0  0
 14 17  2  0     0  0
 14 18  1  0     0  0
 14 19  1  0     0  0
 15 17  1  0     0  0
 16 18  2  0     0  0
 20 21  1  0     0  0
 21 22  1  0     0  0
 21 23  1  0     0  0
 22 24  1  0     0  0
 23 25  1  0     0  0
 24 26  1  0     0  0
 25 26  1  0     0  0
M  END
> <Compound >
20

> <standard_type>
pIC50

> <# Confs.>
25

> <canonical_smiles>
O=NC(C(OCC1CCCCC1)=N2)=CN=C2NC3=CC=C(C(N)=O)C=C3

> <standard_relation>
=

> <predicted_activity_value>
7.4179366370882915

> <actual_activity_value>
7.468521082957745

> <Publication ID>
nan

> <standard_units>
nM

> hash
6513432889398524829

$$$$
20_
XXILIB    08252103453D 0   0.00000     0.00000

 26 28  0     1  0            999 V2000
   -0.6283   -0.5507   -3.3157 O   0  0  0  0  0  2           0  0  0
    1.3872   -0.0000    0.0000 O   0  0  0  0  0  2           0  0  0
   -9.1148   -0.4241    2.5252 O   0  0  0  0  0  2           0  0  0
   -0.6679    0.0000    1.1797 N   0  0  0  0  0  3           0  0  0
   -2.7275    0.0201   -0.0166 N   0  0  0  0  0  3           0  0  0
    0.0162    0.0250   -2.4302 N   0  0  0  0  0  3           0  0  0
   -2.7544    0.0098    2.3345 N   0  0  0  0  0  3           0  0  0
   -8.7212    0.7251    4.4972 N   0  0  0  0  0  3           0  0  0
    0.0000    0.0000   -0.0000 C   0  0  0  0  0  4           0  0  0
   -2.0235    0.0091    1.1389 C   0  0  0  0  0  4           0  0  0
   -2.0219    0.0198   -1.1683 C   0  0  0  0  0  4           0  0  0
   -0.6420    0.0026   -1.2275 C   0  0  0  0  0  4           0  0  0
   -4.1325    0.0182    2.5620 C   0  0  0  0  0  4           0  0  0
   -6.9096    0.0832    3.0949 C   0  0  0  0  0  4           0  0  0
   -5.0490   -0.5630    1.6746 C   0  0  0  0  0  4           0  0  0
   -4.6334    0.6309    3.7208 C   0  0  0  0  0  4           0  0  0
   -6.4232   -0.5320    1.9364 C   0  0  0  0  0  4           0  0  0
   -6.0057    0.6654    3.9885 C   0  0  0  0  0  4           0  0  0
   -8.3537    0.0958    3.3315 C   0  0  0  0  0  4           0  0  0
    1.9728    0.0000    1.3017 C   0  0  0  0  0  4           0  0  0
    3.4920   -0.0000    1.1548 C   0  0  2  0  0  4           0  0  0
    4.1653   -0.0000    2.5341 C   0  0  0  0  0  4           0  0  0
    3.9759    1.1941    0.3145 C   0  0  0  0  0  4           0  0  0
    5.6877    0.0327    2.4198 C   0  0  0  0  0  4           0  0  0
    5.4991    1.2292    0.2069 C   0  0  0  0  0  4           0  0  0
    6.1636    1.2133    1.5795 C   0  0  0  0  0  4           0  0  0
  1  6  2  0     0  0
  2  9  1  0     0  0
  2 20  1  0     0  0
  3 19  2  0     0  0
  4  9  2  0     0  0
  4 10  1  0     0  0
  5 10  2  0     0  0
  5 11  1  0     0  0
  6 12  1  0     0  0
  7 10  1  0     0  0
  7 13  1  0     0  0
  8 19  1  0     0  0
  9 12  1  0     0  0
 11 12  2  0     0  0
 13 15  2  0     0  0
 13 16  1  0     0  0
 14 17  2  0     0  0
 14 18  1  0     0  0
 14 19  1  0     0  0
 15 17  1  0     0  0
 16 18  2  0     0  0
 20 21  1  0     0  0
 21 22  1  0     0  0
 21 23  1  0     0  0
 22 24  1  0     0  0
 23 25  1  0     0  0
 24 26  1  0     0  0
 25 26  1  0     0  0
M  END
> <Compound >
20

> <standard_type>
pIC50

> <# Confs.>
25

> <canonical_smiles>
O=NC(C(OCC1CCCCC1)=N2)=CN=C2NC3=CC=C(C(N)=O)C=C3

> <standard_relation>
=

> <predicted_activity_value>
7.4179366370882915

> <actual_activity_value>
7.468521082957745

> <Publication ID>
nan

> <standard_units>
nM

> hash
6513432889398524829

$$$$
20_
XXILIB    08252103453D 0   0.00000     0.00000

 26 28  0     1  0            999 V2000
   -0.6460    0.5985   -3.3040 O   0  0  0  0  0  2           0  0  0
    1.3872    0.0000   -0.0000 O   0  0  0  0  0  2           0  0  0
   -0.0238    0.4475    8.0818 O   0  0  0  0  0  2           0  0  0
   -0.6679    0.0000    1.1797 N   0  0  0  0  0  3           0  0  0
   -2.7275    0.0201   -0.0166 N   0  0  0  0  0  3           0  0  0
    0.0162    0.0250   -2.4302 N   0  0  0  0  0  3           0  0  0
   -2.7544    0.0098    2.3345 N   0  0  0  0  0  3           0  0  0
   -1.9590   -0.7001    8.6317 N   0  0  0  0  0  3           0  0  0
    0.0000    0.0000    0.0000 C   0  0  0  0  0  4           0  0  0
   -2.0235    0.0091    1.1389 C   0  0  0  0  0  4           0  0  0
   -2.0219    0.0198   -1.1683 C   0  0  0  0  0  4           0  0  0
   -0.6420    0.0026   -1.2275 C   0  0  0  0  0  4           0  0  0
   -2.3285    0.0025    3.6648 C   0  0  0  0  0  4           0  0  0
   -1.5366   -0.0605    6.3795 C   0  0  0  0  0  4           0  0  0
   -1.1205    0.5833    4.0753 C   0  0  0  0  0  4           0  0  0
   -3.1318   -0.6089    4.6395 C   0  0  0  0  0  4           0  0  0
   -0.7270    0.5534    5.4178 C   0  0  0  0  0  4           0  0  0
   -2.7444   -0.6425    5.9830 C   0  0  0  0  0  4           0  0  0
   -1.0887   -0.0721    7.7726 C   0  0  0  0  0  4           0  0  0
    1.9728    0.6508    1.1273 C   0  0  0  0  0  4           0  0  0
    3.3154    1.2431    0.7075 C   0  0  2  0  0  4           0  0  0
    3.9828    1.9549    1.8922 C   0  0  0  0  0  4           0  0  0
    3.1588    2.2030   -0.4842 C   0  0  0  0  0  4           0  0  0
    5.3150    2.5866    1.4945 C   0  0  0  0  0  4           0  0  0
    4.4908    2.8391   -0.8765 C   0  0  0  0  0  4           0  0  0
    5.1573    3.5316    0.3076 C   0  0  0  0  0  4           0  0  0
  1  6  2  0     0  0
  2  9  1  0     0  0
  2 20  1  0     0  0
  3 19  2  0     0  0
  4  9  2  0     0  0
  4 10  1  0     0  0
  5 10  2  0     0  0
  5 11  1  0     0  0
  6 12  1  0     0  0
  7 10  1  0     0  0
  7 13  1  0     0  0
  8 19  1  0     0  0
  9 12  1  0     0  0
 11 12  2  0     0  0
 13 15  2  0     0  0
 13 16  1  0     0  0
 14 17  2  0     0  0
 14 18  1  0     0  0
 14 19  1  0     0  0
 15 17  1  0     0  0
 16 18  2  0     0  0
 20 21  1  0     0  0
 21 22  1  0     0  0
 21 23  1  0     0  0
 22 24  1  0     0  0
 23 25  1  0     0  0
 24 26  1  0     0  0
 25 26  1  0     0  0
M  END
> <Compound >
20

> <standard_type>
pIC50

> <# Confs.>
25

> <canonical_smiles>
O=NC(C(OCC1CCCCC1)=N2)=CN=C2NC3=CC=C(C(N)=O)C=C3

> <standard_relation>
=

> <predicted_activity_value>
7.4179366370882915

> <actual_activity_value>
7.468521082957745

> <Publication ID>
nan

> <standard_units>
nM

> hash
6513432889398524829

$$$$
20_
XXILIB    08252103453D 0   0.00000     0.00000

 26 28  0     1  0            999 V2000
   -0.6283   -0.5507   -3.3157 O   0  0  0  0  0  2           0  0  0
    1.3872   -0.0000    0.0000 O   0  0  0  0  0  2           0  0  0
   -9.1148   -0.4241    2.5252 O   0  0  0  0  0  2           0  0  0
   -0.6679    0.0000    1.1797 N   0  0  0  0  0  3           0  0  0
   -2.7275    0.0201   -0.0166 N   0  0  0  0  0  3           0  0  0
    0.0162    0.0250   -2.4302 N   0  0  0  0  0  3           0  0  0
   -2.7544    0.0098    2.3345 N   0  0  0  0  0  3           0  0  0
   -8.7212    0.7251    4.4972 N   0  0  0  0  0  3           0  0  0
    0.0000    0.0000   -0.0000 C   0  0  0  0  0  4           0  0  0
   -2.0235    0.0091    1.1389 C   0  0  0  0  0  4           0  0  0
   -2.0219    0.0198   -1.1683 C   0  0  0  0  0  4           0  0  0
   -0.6420    0.0026   -1.2275 C   0  0  0  0  0  4           0  0  0
   -4.1325    0.0182    2.5620 C   0  0  0  0  0  4           0  0  0
   -6.9096    0.0832    3.0949 C   0  0  0  0  0  4           0  0  0
   -5.0490   -0.5630    1.6746 C   0  0  0  0  0  4           0  0  0
   -4.6334    0.6309    3.7208 C   0  0  0  0  0  4           0  0  0
   -6.4232   -0.5320    1.9364 C   0  0  0  0  0  4           0  0  0
   -6.0057    0.6654    3.9885 C   0  0  0  0  0  4           0  0  0
   -8.3537    0.0958    3.3315 C   0  0  0  0  0  4           0  0  0
    1.9728    0.0000    1.3017 C   0  0  0  0  0  4           0  0  0
    3.4920   -0.0000    1.1548 C   0  0  2  0  0  4           0  0  0
    3.9578   -1.2450    0.3876 C   0  0  0  0  0  4           0  0  0
    4.1894    0.0870    2.5231 C   0  0  0  0  0  4           0  0  0
    5.4782   -1.2898    0.2526 C   0  0  0  0  0  4           0  0  0
    5.7099    0.0353    2.3868 C   0  0  0  0  0  4           0  0  0
    6.1666   -1.1953    1.6105 C   0  0  0  0  0  4           0  0  0
  1  6  2  0     0  0
  2  9  1  0     0  0
  2 20  1  0     0  0
  3 19  2  0     0  0
  4  9  2  0     0  0
  4 10  1  0     0  0
  5 10  2  0     0  0
  5 11  1  0     0  0
  6 12  1  0     0  0
  7 10  1  0     0  0
  7 13  1  0     0  0
  8 19  1  0     0  0
  9 12  1  0     0  0
 11 12  2  0     0  0
 13 15  2  0     0  0
 13 16  1  0     0  0
 14 17  2  0     0  0
 14 18  1  0     0  0
 14 19  1  0     0  0
 15 17  1  0     0  0
 16 18  2  0     0  0
 20 21  1  0     0  0
 21 22  1  0     0  0
 21 23  1  0     0  0
 22 24  1  0     0  0
 23 25  1  0     0  0
 24 26  1  0     0  0
 25 26  1  0     0  0
M  END
> <Compound >
20

> <standard_type>
pIC50

> <# Confs.>
25

> <canonical_smiles>
O=NC(C(OCC1CCCCC1)=N2)=CN=C2NC3=CC=C(C(N)=O)C=C3

> <standard_relation>
=

> <predicted_activity_value>
7.4179366370882915

> <actual_activity_value>
7.468521082957745

> <Publication ID>
nan

> <standard_units>
nM

> hash
6513432889398524829

$$$$
20_
XXILIB    08252103453D 0   0.00000     0.00000

 26 28  0     1  0            999 V2000
   -0.6283   -0.5507   -3.3157 O   0  0  0  0  0  2           0  0  0
    1.3872   -0.0000    0.0000 O   0  0  0  0  0  2           0  0  0
   -9.1065    0.5459    2.5397 O   0  0  0  0  0  2           0  0  0
   -0.6679    0.0000    1.1797 N   0  0  0  0  0  3           0  0  0
   -2.7275    0.0201   -0.0166 N   0  0  0  0  0  3           0  0  0
    0.0162    0.0250   -2.4302 N   0  0  0  0  0  3           0  0  0
   -2.7544    0.0098    2.3345 N   0  0  0  0  0  3           0  0  0
   -8.7281   -0.6202    4.5047 N   0  0  0  0  0  3           0  0  0
    0.0000    0.0000   -0.0000 C   0  0  0  0  0  4           0  0  0
   -2.0235    0.0091    1.1389 C   0  0  0  0  0  4           0  0  0
   -2.0219    0.0198   -1.1683 C   0  0  0  0  0  4           0  0  0
   -0.6420    0.0026   -1.2275 C   0  0  0  0  0  4           0  0  0
   -4.1325    0.0182    2.5620 C   0  0  0  0  0  4           0  0  0
   -6.9093   -0.0045    3.0999 C   0  0  0  0  0  4           0  0  0
   -5.0412    0.6174    1.6786 C   0  0  0  0  0  4           0  0  0
   -4.6412   -0.5929    3.7183 C   0  0  0  0  0  4           0  0  0
   -6.4152    0.6071    1.9428 C   0  0  0  0  0  4           0  0  0
   -6.0134   -0.6066    3.9884 C   0  0  0  0  0  4           0  0  0
   -8.3527    0.0077    3.3407 C   0  0  0  0  0  4           0  0  0
    1.9728    0.0000    1.3017 C   0  0  0  0  0  4           0  0  0
    3.4920   -0.0000    1.1548 C   0  0  2  0  0  4           0  0  0
    4.1653   -0.0000    2.5341 C   0  0  0  0  0  4           0  0  0
    3.9759    1.1941    0.3145 C   0  0  0  0  0  4           0  0  0
    5.6877    0.0327    2.4198 C   0  0  0  0  0  4           0  0  0
    5.4991    1.2292    0.2069 C   0  0  0  0  0  4           0  0  0
    6.1636    1.2133    1.5795 C   0  0  0  0  0  4           0  0  0
  1  6  2  0     0  0
  2  9  1  0     0  0
  2 20  1  0     0  0
  3 19  2  0     0  0
  4  9  2  0     0  0
  4 10  1  0     0  0
  5 10  2  0     0  0
  5 11  1  0     0  0
  6 12  1  0     0  0
  7 10  1  0     0  0
  7 13  1  0     0  0
  8 19  1  0     0  0
  9 12  1  0     0  0
 11 12  2  0     0  0
 13 15  2  0     0  0
 13 16  1  0     0  0
 14 17  2  0     0  0
 14 18  1  0     0  0
 14 19  1  0     0  0
 15 17  1  0     0  0
 16 18  2  0     0  0
 20 21  1  0     0  0
 21 22  1  0     0  0
 21 23  1  0     0  0
 22 24  1  0     0  0
 23 25  1  0     0  0
 24 26  1  0     0  0
 25 26  1  0     0  0
M  END
> <Compound >
20

> <standard_type>
pIC50

> <# Confs.>
25

> <canonical_smiles>
O=NC(C(OCC1CCCCC1)=N2)=CN=C2NC3=CC=C(C(N)=O)C=C3

> <standard_relation>
=

> <predicted_activity_value>
7.4179366370882915

> <actual_activity_value>
7.468521082957745

> <Publication ID>
nan

> <standard_units>
nM

> hash
6513432889398524829

$$$$
20_
XXILIB    08252103453D 0   0.00000     0.00000

 26 28  0     1  0            999 V2000
   -0.6283   -0.5507   -3.3157 O   0  0  0  0  0  2           0  0  0
    1.3872   -0.0000    0.0000 O   0  0  0  0  0  2           0  0  0
   -0.0238    0.4475    8.0818 O   0  0  0  0  0  2           0  0  0
   -0.6679    0.0000    1.1797 N   0  0  0  0  0  3           0  0  0
   -2.7275    0.0201   -0.0166 N   0  0  0  0  0  3           0  0  0
    0.0162    0.0250   -2.4302 N   0  0  0  0  0  3           0  0  0
   -2.7544    0.0098    2.3345 N   0  0  0  0  0  3           0  0  0
   -1.9590   -0.7001    8.6317 N   0  0  0  0  0  3           0  0  0
    0.0000    0.0000    0.0000 C   0  0  0  0  0  4           0  0  0
   -2.0235    0.0091    1.1389 C   0  0  0  0  0  4           0  0  0
   -2.0219    0.0198   -1.1683 C   0  0  0  0  0  4           0  0  0
   -0.6420    0.0026   -1.2275 C   0  0  0  0  0  4           0  0  0
   -2.3285    0.0025    3.6648 C   0  0  0  0  0  4           0  0  0
   -1.5366   -0.0605    6.3795 C   0  0  0  0  0  4           0  0  0
   -1.1205    0.5833    4.0753 C   0  0  0  0  0  4           0  0  0
   -3.1318   -0.6089    4.6395 C   0  0  0  0  0  4           0  0  0
   -0.7270    0.5534    5.4178 C   0  0  0  0  0  4           0  0  0
   -2.7444   -0.6425    5.9830 C   0  0  0  0  0  4           0  0  0
   -1.0887   -0.0721    7.7726 C   0  0  0  0  0  4           0  0  0
    1.9728    0.0000    1.3017 C   0  0  0  0  0  4           0  0  0
    3.4920   -0.0000    1.1548 C   0  0  2  0  0  4           0  0  0
    4.2250    0.0000    2.5073 C   0  0  0  0  0  4           0  0  0
    4.0054    1.1252    0.2402 C   0  0  0  0  0  4           0  0  0
    4.3357    1.3728    3.1667 C   0  0  0  0  0  4           0  0  0
    4.1159    2.4893    0.9170 C   0  0  0  0  0  4           0  0  0
    4.9114    2.4130    2.2141 C   0  0  0  0  0  4           0  0  0
  1  6  2  0     0  0
  2  9  1  0     0  0
  2 20  1  0     0  0
  3 19  2  0     0  0
  4  9  2  0     0  0
  4 10  1  0     0  0
  5 10  2  0     0  0
  5 11  1  0     0  0
  6 12  1  0     0  0
  7 10  1  0     0  0
  7 13  1  0     0  0
  8 19  1  0     0  0
  9 12  1  0     0  0
 11 12  2  0     0  0
 13 15  2  0     0  0
 13 16  1  0     0  0
 14 17  2  0     0  0
 14 18  1  0     0  0
 14 19  1  0     0  0
 15 17  1  0     0  0
 16 18  2  0     0  0
 20 21  1  0     0  0
 21 22  1  0     0  0
 21 23  1  0     0  0
 22 24  1  0     0  0
 23 25  1  0     0  0
 24 26  1  0     0  0
 25 26  1  0     0  0
M  END
> <Compound >
20

> <standard_type>
pIC50

> <# Confs.>
25

> <canonical_smiles>
O=NC(C(OCC1CCCCC1)=N2)=CN=C2NC3=CC=C(C(N)=O)C=C3

> <standard_relation>
=

> <predicted_activity_value>
7.4179366370882915

> <actual_activity_value>
7.468521082957745

> <Publication ID>
nan

> <standard_units>
nM

> hash
6513432889398524829

$$$$
20_
XXILIB    08252103453D 0   0.00000     0.00000

 26 28  0     1  0            999 V2000
   -0.6283   -0.5507   -3.3157 O   0  0  0  0  0  2           0  0  0
    1.3872   -0.0000    0.0000 O   0  0  0  0  0  2           0  0  0
   -9.1065    0.5459    2.5397 O   0  0  0  0  0  2           0  0  0
   -0.6679    0.0000    1.1797 N   0  0  0  0  0  3           0  0  0
   -2.7275    0.0201   -0.0166 N   0  0  0  0  0  3           0  0  0
    0.0162    0.0250   -2.4302 N   0  0  0  0  0  3           0  0  0
   -2.7544    0.0098    2.3345 N   0  0  0  0  0  3           0  0  0
   -8.7281   -0.6202    4.5047 N   0  0  0  0  0  3           0  0  0
    0.0000    0.0000   -0.0000 C   0  0  0  0  0  4           0  0  0
   -2.0235    0.0091    1.1389 C   0  0  0  0  0  4           0  0  0
   -2.0219    0.0198   -1.1683 C   0  0  0  0  0  4           0  0  0
   -0.6420    0.0026   -1.2275 C   0  0  0  0  0  4           0  0  0
   -4.1325    0.0182    2.5620 C   0  0  0  0  0  4           0  0  0
   -6.9093   -0.0045    3.0999 C   0  0  0  0  0  4           0  0  0
   -5.0412    0.6174    1.6786 C   0  0  0  0  0  4           0  0  0
   -4.6412   -0.5929    3.7183 C   0  0  0  0  0  4           0  0  0
   -6.4152    0.6071    1.9428 C   0  0  0  0  0  4           0  0  0
   -6.0134   -0.6066    3.9884 C   0  0  0  0  0  4           0  0  0
   -8.3527    0.0077    3.3407 C   0  0  0  0  0  4           0  0  0
    1.9728    0.0000    1.3017 C   0  0  0  0  0  4           0  0  0
    3.4920   -0.0000    1.1548 C   0  0  2  0  0  4           0  0  0
    3.9578   -1.2450    0.3876 C   0  0  0  0  0  4           0  0  0
    4.1894    0.0870    2.5231 C   0  0  0  0  0  4           0  0  0
    5.4782   -1.2898    0.2526 C   0  0  0  0  0  4           0  0  0
    5.7099    0.0353    2.3868 C   0  0  0  0  0  4           0  0  0
    6.1666   -1.1953    1.6105 C   0  0  0  0  0  4           0  0  0
  1  6  2  0     0  0
  2  9  1  0     0  0
  2 20  1  0     0  0
  3 19  2  0     0  0
  4  9  2  0     0  0
  4 10  1  0     0  0
  5 10  2  0     0  0
  5 11  1  0     0  0
  6 12  1  0     0  0
  7 10  1  0     0  0
  7 13  1  0     0  0
  8 19  1  0     0  0
  9 12  1  0     0  0
 11 12  2  0     0  0
 13 15  2  0     0  0
 13 16  1  0     0  0
 14 17  2  0     0  0
 14 18  1  0     0  0
 14 19  1  0     0  0
 15 17  1  0     0  0
 16 18  2  0     0  0
 20 21  1  0     0  0
 21 22  1  0     0  0
 21 23  1  0     0  0
 22 24  1  0     0  0
 23 25  1  0     0  0
 24 26  1  0     0  0
 25 26  1  0     0  0
M  END
> <Compound >
20

> <standard_type>
pIC50

> <# Confs.>
25

> <canonical_smiles>
O=NC(C(OCC1CCCCC1)=N2)=CN=C2NC3=CC=C(C(N)=O)C=C3

> <standard_relation>
=

> <predicted_activity_value>
7.4179366370882915

> <actual_activity_value>
7.468521082957745

> <Publication ID>
nan

> <standard_units>
nM

> hash
6513432889398524829

$$$$
20_
XXILIB    08252103453D 0   0.00000     0.00000

 26 28  0     1  0            999 V2000
   -0.6283   -0.5507   -3.3157 O   0  0  0  0  0  2           0  0  0
    1.3872   -0.0000    0.0000 O   0  0  0  0  0  2           0  0  0
   -1.6410   -0.4941    8.5944 O   0  0  0  0  0  2           0  0  0
   -0.6679    0.0000    1.1797 N   0  0  0  0  0  3           0  0  0
   -2.7275    0.0201   -0.0166 N   0  0  0  0  0  3           0  0  0
    0.0162    0.0250   -2.4302 N   0  0  0  0  0  3           0  0  0
   -2.7544    0.0098    2.3345 N   0  0  0  0  0  3           0  0  0
    0.2574    0.6541    7.9296 N   0  0  0  0  0  3           0  0  0
    0.0000    0.0000    0.0000 C   0  0  0  0  0  4           0  0  0
   -2.0235    0.0091    1.1389 C   0  0  0  0  0  4           0  0  0
   -2.0219    0.0198   -1.1683 C   0  0  0  0  0  4           0  0  0
   -0.6420    0.0026   -1.2275 C   0  0  0  0  0  4           0  0  0
   -2.3285    0.0025    3.6648 C   0  0  0  0  0  4           0  0  0
   -1.3965    0.0357    6.3351 C   0  0  0  0  0  4           0  0  0
   -3.0754   -0.5863    4.6947 C   0  0  0  0  0  4           0  0  0
   -1.1065    0.6067    3.9978 C   0  0  0  0  0  4           0  0  0
   -2.6160   -0.5711    6.0163 C   0  0  0  0  0  4           0  0  0
   -0.6416    0.6255    5.3168 C   0  0  0  0  0  4           0  0  0
   -0.9520    0.0319    7.7294 C   0  0  0  0  0  4           0  0  0
    1.9728    0.0000    1.3017 C   0  0  0  0  0  4           0  0  0
    3.4920   -0.0000    1.1548 C   0  0  2  0  0  4           0  0  0
    3.9802    1.2386    0.3892 C   0  0  0  0  0  4           0  0  0
    4.2149   -0.1136    2.5092 C   0  0  0  0  0  4           0  0  0
    3.8936    2.5208    1.2155 C   0  0  0  0  0  4           0  0  0
    4.1344    1.1680    3.3375 C   0  0  0  0  0  4           0  0  0
    4.6233    2.3784    2.5478 C   0  0  0  0  0  4           0  0  0
  1  6  2  0     0  0
  2  9  1  0     0  0
  2 20  1  0     0  0
  3 19  2  0     0  0
  4  9  2  0     0  0
  4 10  1  0     0  0
  5 10  2  0     0  0
  5 11  1  0     0  0
  6 12  1  0     0  0
  7 10  1  0     0  0
  7 13  1  0     0  0
  8 19  1  0     0  0
  9 12  1  0     0  0
 11 12  2  0     0  0
 13 15  2  0     0  0
 13 16  1  0     0  0
 14 17  2  0     0  0
 14 18  1  0     0  0
 14 19  1  0     0  0
 15 17  1  0     0  0
 16 18  2  0     0  0
 20 21  1  0     0  0
 21 22  1  0     0  0
 21 23  1  0     0  0
 22 24  1  0     0  0
 23 25  1  0     0  0
 24 26  1  0     0  0
 25 26  1  0     0  0
M  END
> <Compound >
20

> <standard_type>
pIC50

> <# Confs.>
25

> <canonical_smiles>
O=NC(C(OCC1CCCCC1)=N2)=CN=C2NC3=CC=C(C(N)=O)C=C3

> <standard_relation>
=

> <predicted_activity_value>
7.4179366370882915

> <actual_activity_value>
7.468521082957745

> <Publication ID>
nan

> <standard_units>
nM

> hash
6513432889398524829

$$$$
21_
XXILIB    08252103453D 0   0.00000     0.00000

 25 27  0     1  0            999 V2000
   -0.6306    0.5209   -3.3549 O   0  0  0  0  0  2           0  0  0
    1.3872   -0.0000    0.0000 O   0  0  0  0  0  2           0  0  0
   -4.9637    0.9647    6.8482 O   0  0  0  0  0  2           0  0  0
   -0.6646    0.0000    1.1816 N   0  0  0  0  0  3           0  0  0
   -2.7267   -0.0476   -0.0065 N   0  0  0  0  0  3           0  0  0
   -0.0049   -0.0358   -2.4449 N   0  0  0  0  0  3           0  0  0
   -2.7444   -0.0197    2.3454 N   0  0  0  0  0  3           0  0  0
    0.0000    0.0000    0.0000 C   0  0  0  0  0  4           0  0  0
   -2.0196   -0.0220    1.1463 C   0  0  0  0  0  4           0  0  0
   -2.0246   -0.0454   -1.1607 C   0  0  0  0  0  4           0  0  0
   -0.6454   -0.0124   -1.2270 C   0  0  0  0  0  4           0  0  0
   -2.3124    0.0025    3.6740 C   0  0  0  0  0  4           0  0  0
   -2.7313    0.6596    5.9974 C   0  0  0  0  0  4           0  0  0
   -3.1192    0.6141    4.6493 C   0  0  0  0  0  4           0  0  0
   -1.0969   -0.5657    4.0805 C   0  0  0  0  0  4           0  0  0
   -1.5069    0.0974    6.3708 C   0  0  0  0  0  4           0  0  0
   -0.6967   -0.5158    5.4173 C   0  0  0  0  0  4           0  0  0
   -3.6000    1.3324    7.0147 C   0  0  0  0  0  4           0  0  0
    1.9727   -0.0000    1.3019 C   0  0  0  0  0  4           0  0  0
    3.4918    0.0000    1.1538 C   0  0  1  0  0  4           0  0  0
    3.9823    1.2390    0.3872 C   0  0  0  0  0  4           0  0  0
    4.1905   -0.0923    2.5198 C   0  0  0  0  0  4           0  0  0
    5.5028    1.2434    0.2402 C   0  0  0  0  0  4           0  0  0
    5.7112   -0.0884    2.3750 C   0  0  0  0  0  4           0  0  0
    6.2001    1.1260    1.5917 C   0  0  0  0  0  4           0  0  0
  1  6  2  0     0  0
  2  8  1  0     0  0
  2 19  1  0     0  0
  3 18  1  0     0  0
  4  8  2  0     0  0
  4  9  1  0     0  0
  5  9  2  0     0  0
  5 10  1  0     0  0
  6 11  1  0     0  0
  7  9  1  0     0  0
  7 12  1  0     0  0
  8 11  1  0     0  0
 10 11  2  0     0  0
 12 14  2  0     0  0
 12 15  1  0     0  0
 13 14  1  0     0  0
 13 16  2  0     0  0
 13 18  1  0     0  0
 15 17  2  0     0  0
 16 17  1  0     0  0
 19 20  1  0     0  0
 20 21  1  0     0  0
 20 22  1  0     0  0
 21 23  1  0     0  0
 22 24  1  0     0  0
 23 25  1  0     0  0
 24 25  1  0     0  0
M  END
> <Compound >
21

> <standard_type>
pIC50

> <# Confs.>
25

> <canonical_smiles>
O=NC(C(OCC1CCCCC1)=N2)=CN=C2NC3=CC(CO)=CC=C3

> <standard_relation>
=

> <predicted_activity_value>
6.57218942732401

> <actual_activity_value>
7.346787486224656

> <Publication ID>
nan

> <standard_units>
nM

> hash
1830935704564264604

$$$$
21_
XXILIB    08252103453D 0   0.00000     0.00000

 25 27  0     1  0            999 V2000
   -0.6306    0.5209   -3.3549 O   0  0  0  0  0  2           0  0  0
    1.3872   -0.0000    0.0000 O   0  0  0  0  0  2           0  0  0
   -4.0446   -2.5319    6.6078 O   0  0  0  0  0  2           0  0  0
   -0.6646    0.0000    1.1816 N   0  0  0  0  0  3           0  0  0
   -2.7267   -0.0476   -0.0065 N   0  0  0  0  0  3           0  0  0
   -0.0049   -0.0358   -2.4449 N   0  0  0  0  0  3           0  0  0
   -2.7444   -0.0197    2.3454 N   0  0  0  0  0  3           0  0  0
    0.0000    0.0000    0.0000 C   0  0  0  0  0  4           0  0  0
   -2.0196   -0.0220    1.1463 C   0  0  0  0  0  4           0  0  0
   -2.0246   -0.0454   -1.1607 C   0  0  0  0  0  4           0  0  0
   -0.6454   -0.0124   -1.2270 C   0  0  0  0  0  4           0  0  0
   -2.3124    0.0025    3.6740 C   0  0  0  0  0  4           0  0  0
   -2.7079   -0.6194    6.0112 C   0  0  0  0  0  4           0  0  0
   -3.0997   -0.6117    4.6634 C   0  0  0  0  0  4           0  0  0
   -1.1147    0.6166    4.0666 C   0  0  0  0  0  4           0  0  0
   -1.5156    0.0137    6.3750 C   0  0  0  0  0  4           0  0  0
   -0.7216    0.6242    5.4063 C   0  0  0  0  0  4           0  0  0
   -3.5726   -1.2650    7.0492 C   0  0  0  0  0  4           0  0  0
    1.9727   -0.0000    1.3019 C   0  0  0  0  0  4           0  0  0
    3.4918    0.0000    1.1538 C   0  0  1  0  0  4           0  0  0
    3.9823    1.2390    0.3872 C   0  0  0  0  0  4           0  0  0
    4.1905   -0.0923    2.5198 C   0  0  0  0  0  4           0  0  0
    5.5028    1.2434    0.2402 C   0  0  0  0  0  4           0  0  0
    5.7112   -0.0884    2.3750 C   0  0  0  0  0  4           0  0  0
    6.2001    1.1260    1.5917 C   0  0  0  0  0  4           0  0  0
  1  6  2  0     0  0
  2  8  1  0     0  0
  2 19  1  0     0  0
  3 18  1  0     0  0
  4  8  2  0     0  0
  4  9  1  0     0  0
  5  9  2  0     0  0
  5 10  1  0     0  0
  6 11  1  0     0  0
  7  9  1  0     0  0
  7 12  1  0     0  0
  8 11  1  0     0  0
 10 11  2  0     0  0
 12 14  2  0     0  0
 12 15  1  0     0  0
 13 14  1  0     0  0
 13 16  2  0     0  0
 13 18  1  0     0  0
 15 17  2  0     0  0
 16 17  1  0     0  0
 19 20  1  0     0  0
 20 21  1  0     0  0
 20 22  1  0     0  0
 21 23  1  0     0  0
 22 24  1  0     0  0
 23 25  1  0     0  0
 24 25  1  0     0  0
M  END
> <Compound >
21

> <standard_type>
pIC50

> <# Confs.>
25

> <canonical_smiles>
O=NC(C(OCC1CCCCC1)=N2)=CN=C2NC3=CC(CO)=CC=C3

> <standard_relation>
=

> <predicted_activity_value>
6.57218942732401

> <actual_activity_value>
7.346787486224656

> <Publication ID>
nan

> <standard_units>
nM

> hash
1830935704564264604

$$$$
21_
XXILIB    08252103453D 0   0.00000     0.00000

 25 27  0     1  0            999 V2000
   -0.6306    0.5209   -3.3549 O   0  0  0  0  0  2           0  0  0
    1.3872   -0.0000    0.0000 O   0  0  0  0  0  2           0  0  0
   -4.9637    0.9647    6.8482 O   0  0  0  0  0  2           0  0  0
   -0.6646    0.0000    1.1816 N   0  0  0  0  0  3           0  0  0
   -2.7267   -0.0476   -0.0065 N   0  0  0  0  0  3           0  0  0
   -0.0049   -0.0358   -2.4449 N   0  0  0  0  0  3           0  0  0
   -2.7444   -0.0197    2.3454 N   0  0  0  0  0  3           0  0  0
    0.0000    0.0000    0.0000 C   0  0  0  0  0  4           0  0  0
   -2.0196   -0.0220    1.1463 C   0  0  0  0  0  4           0  0  0
   -2.0246   -0.0454   -1.1607 C   0  0  0  0  0  4           0  0  0
   -0.6454   -0.0124   -1.2270 C   0  0  0  0  0  4           0  0  0
   -2.3124    0.0025    3.6740 C   0  0  0  0  0  4           0  0  0
   -2.7313    0.6596    5.9974 C   0  0  0  0  0  4           0  0  0
   -3.1192    0.6141    4.6493 C   0  0  0  0  0  4           0  0  0
   -1.0969   -0.5657    4.0805 C   0  0  0  0  0  4           0  0  0
   -1.5069    0.0974    6.3708 C   0  0  0  0  0  4           0  0  0
   -0.6967   -0.5158    5.4173 C   0  0  0  0  0  4           0  0  0
   -3.6000    1.3324    7.0147 C   0  0  0  0  0  4           0  0  0
    1.9727   -0.0000    1.3019 C   0  0  0  0  0  4           0  0  0
    3.4918    0.0000    1.1538 C   0  0  1  0  0  4           0  0  0
    4.1905   -0.0000    2.5231 C   0  0  0  0  0  4           0  0  0
    3.9750   -1.1899    0.3093 C   0  0  0  0  0  4           0  0  0
    5.7112   -0.0032    2.3781 C   0  0  0  0  0  4           0  0  0
    5.4955   -1.1949    0.1627 C   0  0  0  0  0  4           0  0  0
    6.1931   -1.1680    1.5192 C   0  0  0  0  0  4           0  0  0
  1  6  2  0     0  0
  2  8  1  0     0  0
  2 19  1  0     0  0
  3 18  1  0     0  0
  4  8  2  0     0  0
  4  9  1  0     0  0
  5  9  2  0     0  0
  5 10  1  0     0  0
  6 11  1  0     0  0
  7  9  1  0     0  0
  7 12  1  0     0  0
  8 11  1  0     0  0
 10 11  2  0     0  0
 12 14  2  0     0  0
 12 15  1  0     0  0
 13 14  1  0     0  0
 13 16  2  0     0  0
 13 18  1  0     0  0
 15 17  2  0     0  0
 16 17  1  0     0  0
 19 20  1  0     0  0
 20 21  1  0     0  0
 20 22  1  0     0  0
 21 23  1  0     0  0
 22 24  1  0     0  0
 23 25  1  0     0  0
 24 25  1  0     0  0
M  END
> <Compound >
21

> <standard_type>
pIC50

> <# Confs.>
25

> <canonical_smiles>
O=NC(C(OCC1CCCCC1)=N2)=CN=C2NC3=CC(CO)=CC=C3

> <standard_relation>
=

> <predicted_activity_value>
6.57218942732401

> <actual_activity_value>
7.346787486224656

> <Publication ID>
nan

> <standard_units>
nM

> hash
1830935704564264604

$$$$
21_
XXILIB    08252103453D 0   0.00000     0.00000

 25 27  0     1  0            999 V2000
   -0.6306    0.5209   -3.3549 O   0  0  0  0  0  2           0  0  0
    1.3872   -0.0000    0.0000 O   0  0  0  0  0  2           0  0  0
   -4.9637    0.9647    6.8482 O   0  0  0  0  0  2           0  0  0
   -0.6646    0.0000    1.1816 N   0  0  0  0  0  3           0  0  0
   -2.7267   -0.0476   -0.0065 N   0  0  0  0  0  3           0  0  0
   -0.0049   -0.0358   -2.4449 N   0  0  0  0  0  3           0  0  0
   -2.7444   -0.0197    2.3454 N   0  0  0  0  0  3           0  0  0
    0.0000    0.0000    0.0000 C   0  0  0  0  0  4           0  0  0
   -2.0196   -0.0220    1.1463 C   0  0  0  0  0  4           0  0  0
   -2.0246   -0.0454   -1.1607 C   0  0  0  0  0  4           0  0  0
   -0.6454   -0.0124   -1.2270 C   0  0  0  0  0  4           0  0  0
   -2.3124    0.0025    3.6740 C   0  0  0  0  0  4           0  0  0
   -2.7313    0.6596    5.9974 C   0  0  0  0  0  4           0  0  0
   -3.1192    0.6141    4.6493 C   0  0  0  0  0  4           0  0  0
   -1.0969   -0.5657    4.0805 C   0  0  0  0  0  4           0  0  0
   -1.5069    0.0974    6.3708 C   0  0  0  0  0  4           0  0  0
   -0.6967   -0.5158    5.4173 C   0  0  0  0  0  4           0  0  0
   -3.6000    1.3324    7.0147 C   0  0  0  0  0  4           0  0  0
    1.9727   -0.0000    1.3019 C   0  0  0  0  0  4           0  0  0
    3.4918    0.0000    1.1538 C   0  0  1  0  0  4           0  0  0
    3.9823   -1.2390    0.3872 C   0  0  0  0  0  4           0  0  0
    3.9905    1.2823    0.4685 C   0  0  0  0  0  4           0  0  0
    5.5022   -1.2402    0.2346 C   0  0  0  0  0  4           0  0  0
    5.5104    1.2833    0.3151 C   0  0  0  0  0  4           0  0  0
    6.0038    0.0420   -0.4219 C   0  0  0  0  0  4           0  0  0
  1  6  2  0     0  0
  2  8  1  0     0  0
  2 19  1  0     0  0
  3 18  1  0     0  0
  4  8  2  0     0  0
  4  9  1  0     0  0
  5  9  2  0     0  0
  5 10  1  0     0  0
  6 11  1  0     0  0
  7  9  1  0     0  0
  7 12  1  0     0  0
  8 11  1  0     0  0
 10 11  2  0     0  0
 12 14  2  0     0  0
 12 15  1  0     0  0
 13 14  1  0     0  0
 13 16  2  0     0  0
 13 18  1  0     0  0
 15 17  2  0     0  0
 16 17  1  0     0  0
 19 20  1  0     0  0
 20 21  1  0     0  0
 20 22  1  0     0  0
 21 23  1  0     0  0
 22 24  1  0     0  0
 23 25  1  0     0  0
 24 25  1  0     0  0
M  END
> <Compound >
21

> <standard_type>
pIC50

> <# Confs.>
25

> <canonical_smiles>
O=NC(C(OCC1CCCCC1)=N2)=CN=C2NC3=CC(CO)=CC=C3

> <standard_relation>
=

> <predicted_activity_value>
6.57218942732401

> <actual_activity_value>
7.346787486224656

> <Publication ID>
nan

> <standard_units>
nM

> hash
1830935704564264604

$$$$
21_
XXILIB    08252103453D 0   0.00000     0.00000

 25 27  0     1  0            999 V2000
   -0.6306    0.5209   -3.3549 O   0  0  0  0  0  2           0  0  0
    1.3872   -0.0000    0.0000 O   0  0  0  0  0  2           0  0  0
   -4.0446   -2.5319    6.6078 O   0  0  0  0  0  2           0  0  0
   -0.6646    0.0000    1.1816 N   0  0  0  0  0  3           0  0  0
   -2.7267   -0.0476   -0.0065 N   0  0  0  0  0  3           0  0  0
   -0.0049   -0.0358   -2.4449 N   0  0  0  0  0  3           0  0  0
   -2.7444   -0.0197    2.3454 N   0  0  0  0  0  3           0  0  0
    0.0000    0.0000    0.0000 C   0  0  0  0  0  4           0  0  0
   -2.0196   -0.0220    1.1463 C   0  0  0  0  0  4           0  0  0
   -2.0246   -0.0454   -1.1607 C   0  0  0  0  0  4           0  0  0
   -0.6454   -0.0124   -1.2270 C   0  0  0  0  0  4           0  0  0
   -2.3124    0.0025    3.6740 C   0  0  0  0  0  4           0  0  0
   -2.7079   -0.6194    6.0112 C   0  0  0  0  0  4           0  0  0
   -3.0997   -0.6117    4.6634 C   0  0  0  0  0  4           0  0  0
   -1.1147    0.6166    4.0666 C   0  0  0  0  0  4           0  0  0
   -1.5156    0.0137    6.3750 C   0  0  0  0  0  4           0  0  0
   -0.7216    0.6242    5.4063 C   0  0  0  0  0  4           0  0  0
   -3.5726   -1.2650    7.0492 C   0  0  0  0  0  4           0  0  0
    1.9727   -0.0000    1.3019 C   0  0  0  0  0  4           0  0  0
    3.4918    0.0000    1.1538 C   0  0  1  0  0  4           0  0  0
    4.1905   -0.0000    2.5231 C   0  0  0  0  0  4           0  0  0
    3.9750   -1.1899    0.3093 C   0  0  0  0  0  4           0  0  0
    5.7112   -0.0032    2.3781 C   0  0  0  0  0  4           0  0  0
    5.4955   -1.1949    0.1627 C   0  0  0  0  0  4           0  0  0
    6.1931   -1.1680    1.5192 C   0  0  0  0  0  4           0  0  0
  1  6  2  0     0  0
  2  8  1  0     0  0
  2 19  1  0     0  0
  3 18  1  0     0  0
  4  8  2  0     0  0
  4  9  1  0     0  0
  5  9  2  0     0  0
  5 10  1  0     0  0
  6 11  1  0     0  0
  7  9  1  0     0  0
  7 12  1  0     0  0
  8 11  1  0     0  0
 10 11  2  0     0  0
 12 14  2  0     0  0
 12 15  1  0     0  0
 13 14  1  0     0  0
 13 16  2  0     0  0
 13 18  1  0     0  0
 15 17  2  0     0  0
 16 17  1  0     0  0
 19 20  1  0     0  0
 20 21  1  0     0  0
 20 22  1  0     0  0
 21 23  1  0     0  0
 22 24  1  0     0  0
 23 25  1  0     0  0
 24 25  1  0     0  0
M  END
> <Compound >
21

> <standard_type>
pIC50

> <# Confs.>
25

> <canonical_smiles>
O=NC(C(OCC1CCCCC1)=N2)=CN=C2NC3=CC(CO)=CC=C3

> <standard_relation>
=

> <predicted_activity_value>
6.57218942732401

> <actual_activity_value>
7.346787486224656

> <Publication ID>
nan

> <standard_units>
nM

> hash
1830935704564264604

$$$$
21_
XXILIB    08252103453D 0   0.00000     0.00000

 25 27  0     1  0            999 V2000
   -0.6306    0.5209   -3.3549 O   0  0  0  0  0  2           0  0  0
    1.3872   -0.0000    0.0000 O   0  0  0  0  0  2           0  0  0
   -4.0446   -2.5319    6.6078 O   0  0  0  0  0  2           0  0  0
   -0.6646    0.0000    1.1816 N   0  0  0  0  0  3           0  0  0
   -2.7267   -0.0476   -0.0065 N   0  0  0  0  0  3           0  0  0
   -0.0049   -0.0358   -2.4449 N   0  0  0  0  0  3           0  0  0
   -2.7444   -0.0197    2.3454 N   0  0  0  0  0  3           0  0  0
    0.0000    0.0000    0.0000 C   0  0  0  0  0  4           0  0  0
   -2.0196   -0.0220    1.1463 C   0  0  0  0  0  4           0  0  0
   -2.0246   -0.0454   -1.1607 C   0  0  0  0  0  4           0  0  0
   -0.6454   -0.0124   -1.2270 C   0  0  0  0  0  4           0  0  0
   -2.3124    0.0025    3.6740 C   0  0  0  0  0  4           0  0  0
   -2.7079   -0.6194    6.0112 C   0  0  0  0  0  4           0  0  0
   -3.0997   -0.6117    4.6634 C   0  0  0  0  0  4           0  0  0
   -1.1147    0.6166    4.0666 C   0  0  0  0  0  4           0  0  0
   -1.5156    0.0137    6.3750 C   0  0  0  0  0  4           0  0  0
   -0.7216    0.6242    5.4063 C   0  0  0  0  0  4           0  0  0
   -3.5726   -1.2650    7.0492 C   0  0  0  0  0  4           0  0  0
    1.9727   -0.0000    1.3019 C   0  0  0  0  0  4           0  0  0
    3.4918    0.0000    1.1538 C   0  0  1  0  0  4           0  0  0
    3.9823   -1.2390    0.3872 C   0  0  0  0  0  4           0  0  0
    3.9905    1.2823    0.4685 C   0  0  0  0  0  4           0  0  0
    5.5022   -1.2402    0.2346 C   0  0  0  0  0  4           0  0  0
    5.5104    1.2833    0.3151 C   0  0  0  0  0  4           0  0  0
    6.0038    0.0420   -0.4219 C   0  0  0  0  0  4           0  0  0
  1  6  2  0     0  0
  2  8  1  0     0  0
  2 19  1  0     0  0
  3 18  1  0     0  0
  4  8  2  0     0  0
  4  9  1  0     0  0
  5  9  2  0     0  0
  5 10  1  0     0  0
  6 11  1  0     0  0
  7  9  1  0     0  0
  7 12  1  0     0  0
  8 11  1  0     0  0
 10 11  2  0     0  0
 12 14  2  0     0  0
 12 15  1  0     0  0
 13 14  1  0     0  0
 13 16  2  0     0  0
 13 18  1  0     0  0
 15 17  2  0     0  0
 16 17  1  0     0  0
 19 20  1  0     0  0
 20 21  1  0     0  0
 20 22  1  0     0  0
 21 23  1  0     0  0
 22 24  1  0     0  0
 23 25  1  0     0  0
 24 25  1  0     0  0
M  END
> <Compound >
21

> <standard_type>
pIC50

> <# Confs.>
25

> <canonical_smiles>
O=NC(C(OCC1CCCCC1)=N2)=CN=C2NC3=CC(CO)=CC=C3

> <standard_relation>
=

> <predicted_activity_value>
6.57218942732401

> <actual_activity_value>
7.346787486224656

> <Publication ID>
nan

> <standard_units>
nM

> hash
1830935704564264604

$$$$
21_
XXILIB    08252103453D 0   0.00000     0.00000

 25 27  0     1  0            999 V2000
   -0.6404   -0.6081   -3.3383 O   0  0  0  0  0  2           0  0  0
    1.3872   -0.0000    0.0000 O   0  0  0  0  0  2           0  0  0
   -2.8314    2.1609    7.8780 O   0  0  0  0  0  2           0  0  0
   -0.6646    0.0000    1.1816 N   0  0  0  0  0  3           0  0  0
   -2.7267   -0.0476   -0.0065 N   0  0  0  0  0  3           0  0  0
   -0.0049   -0.0358   -2.4449 N   0  0  0  0  0  3           0  0  0
   -2.7444   -0.0197    2.3454 N   0  0  0  0  0  3           0  0  0
    0.0000    0.0000    0.0000 C   0  0  0  0  0  4           0  0  0
   -2.0196   -0.0220    1.1463 C   0  0  0  0  0  4           0  0  0
   -2.0246   -0.0454   -1.1607 C   0  0  0  0  0  4           0  0  0
   -0.6454   -0.0124   -1.2270 C   0  0  0  0  0  4           0  0  0
   -2.3124    0.0025    3.6740 C   0  0  0  0  0  4           0  0  0
   -2.7313    0.6596    5.9974 C   0  0  0  0  0  4           0  0  0
   -3.1192    0.6141    4.6493 C   0  0  0  0  0  4           0  0  0
   -1.0969   -0.5657    4.0805 C   0  0  0  0  0  4           0  0  0
   -1.5069    0.0974    6.3708 C   0  0  0  0  0  4           0  0  0
   -0.6967   -0.5158    5.4173 C   0  0  0  0  0  4           0  0  0
   -3.6000    1.3324    7.0147 C   0  0  0  0  0  4           0  0  0
    1.9727   -0.0000    1.3019 C   0  0  0  0  0  4           0  0  0
    3.4918    0.0000    1.1538 C   0  0  1  0  0  4           0  0  0
    3.9823    1.2390    0.3872 C   0  0  0  0  0  4           0  0  0
    4.1905   -0.0923    2.5198 C   0  0  0  0  0  4           0  0  0
    5.5028    1.2434    0.2402 C   0  0  0  0  0  4           0  0  0
    5.7112   -0.0884    2.3750 C   0  0  0  0  0  4           0  0  0
    6.2001    1.1260    1.5917 C   0  0  0  0  0  4           0  0  0
  1  6  2  0     0  0
  2  8  1  0     0  0
  2 19  1  0     0  0
  3 18  1  0     0  0
  4  8  2  0     0  0
  4  9  1  0     0  0
  5  9  2  0     0  0
  5 10  1  0     0  0
  6 11  1  0     0  0
  7  9  1  0     0  0
  7 12  1  0     0  0
  8 11  1  0     0  0
 10 11  2  0     0  0
 12 14  2  0     0  0
 12 15  1  0     0  0
 13 14  1  0     0  0
 13 16  2  0     0  0
 13 18  1  0     0  0
 15 17  2  0     0  0
 16 17  1  0     0  0
 19 20  1  0     0  0
 20 21  1  0     0  0
 20 22  1  0     0  0
 21 23  1  0     0  0
 22 24  1  0     0  0
 23 25  1  0     0  0
 24 25  1  0     0  0
M  END
> <Compound >
21

> <standard_type>
pIC50

> <# Confs.>
25

> <canonical_smiles>
O=NC(C(OCC1CCCCC1)=N2)=CN=C2NC3=CC(CO)=CC=C3

> <standard_relation>
=

> <predicted_activity_value>
6.57218942732401

> <actual_activity_value>
7.346787486224656

> <Publication ID>
nan

> <standard_units>
nM

> hash
1830935704564264604

$$$$
21_
XXILIB    08252103453D 0   0.00000     0.00000

 25 27  0     1  0            999 V2000
   -0.6404   -0.6081   -3.3383 O   0  0  0  0  0  2           0  0  0
    1.3872   -0.0000    0.0000 O   0  0  0  0  0  2           0  0  0
   -2.8314    2.1609    7.8780 O   0  0  0  0  0  2           0  0  0
   -0.6646    0.0000    1.1816 N   0  0  0  0  0  3           0  0  0
   -2.7267   -0.0476   -0.0065 N   0  0  0  0  0  3           0  0  0
   -0.0049   -0.0358   -2.4449 N   0  0  0  0  0  3           0  0  0
   -2.7444   -0.0197    2.3454 N   0  0  0  0  0  3           0  0  0
    0.0000    0.0000    0.0000 C   0  0  0  0  0  4           0  0  0
   -2.0196   -0.0220    1.1463 C   0  0  0  0  0  4           0  0  0
   -2.0246   -0.0454   -1.1607 C   0  0  0  0  0  4           0  0  0
   -0.6454   -0.0124   -1.2270 C   0  0  0  0  0  4           0  0  0
   -2.3124    0.0025    3.6740 C   0  0  0  0  0  4           0  0  0
   -2.7313    0.6596    5.9974 C   0  0  0  0  0  4           0  0  0
   -3.1192    0.6141    4.6493 C   0  0  0  0  0  4           0  0  0
   -1.0969   -0.5657    4.0805 C   0  0  0  0  0  4           0  0  0
   -1.5069    0.0974    6.3708 C   0  0  0  0  0  4           0  0  0
   -0.6967   -0.5158    5.4173 C   0  0  0  0  0  4           0  0  0
   -3.6000    1.3324    7.0147 C   0  0  0  0  0  4           0  0  0
    1.9727   -0.0000    1.3019 C   0  0  0  0  0  4           0  0  0
    3.4918    0.0000    1.1538 C   0  0  1  0  0  4           0  0  0
    4.1905   -0.0000    2.5231 C   0  0  0  0  0  4           0  0  0
    3.9750   -1.1899    0.3093 C   0  0  0  0  0  4           0  0  0
    5.7112   -0.0032    2.3781 C   0  0  0  0  0  4           0  0  0
    5.4955   -1.1949    0.1627 C   0  0  0  0  0  4           0  0  0
    6.1931   -1.1680    1.5192 C   0  0  0  0  0  4           0  0  0
  1  6  2  0     0  0
  2  8  1  0     0  0
  2 19  1  0     0  0
  3 18  1  0     0  0
  4  8  2  0     0  0
  4  9  1  0     0  0
  5  9  2  0     0  0
  5 10  1  0     0  0
  6 11  1  0     0  0
  7  9  1  0     0  0
  7 12  1  0     0  0
  8 11  1  0     0  0
 10 11  2  0     0  0
 12 14  2  0     0  0
 12 15  1  0     0  0
 13 14  1  0     0  0
 13 16  2  0     0  0
 13 18  1  0     0  0
 15 17  2  0     0  0
 16 17  1  0     0  0
 19 20  1  0     0  0
 20 21  1  0     0  0
 20 22  1  0     0  0
 21 23  1  0     0  0
 22 24  1  0     0  0
 23 25  1  0     0  0
 24 25  1  0     0  0
M  END
> <Compound >
21

> <standard_type>
pIC50

> <# Confs.>
25

> <canonical_smiles>
O=NC(C(OCC1CCCCC1)=N2)=CN=C2NC3=CC(CO)=CC=C3

> <standard_relation>
=

> <predicted_activity_value>
6.57218942732401

> <actual_activity_value>
7.346787486224656

> <Publication ID>
nan

> <standard_units>
nM

> hash
1830935704564264604

$$$$
21_
XXILIB    08252103453D 0   0.00000     0.00000

 25 27  0     1  0            999 V2000
   -0.6404   -0.6081   -3.3383 O   0  0  0  0  0  2           0  0  0
    1.3872   -0.0000    0.0000 O   0  0  0  0  0  2           0  0  0
   -3.6930   -0.4404    8.2016 O   0  0  0  0  0  2           0  0  0
   -0.6646    0.0000    1.1816 N   0  0  0  0  0  3           0  0  0
   -2.7267   -0.0476   -0.0065 N   0  0  0  0  0  3           0  0  0
   -0.0049   -0.0358   -2.4449 N   0  0  0  0  0  3           0  0  0
   -2.7444   -0.0197    2.3454 N   0  0  0  0  0  3           0  0  0
    0.0000    0.0000    0.0000 C   0  0  0  0  0  4           0  0  0
   -2.0196   -0.0220    1.1463 C   0  0  0  0  0  4           0  0  0
   -2.0246   -0.0454   -1.1607 C   0  0  0  0  0  4           0  0  0
   -0.6454   -0.0124   -1.2270 C   0  0  0  0  0  4           0  0  0
   -2.3124    0.0025    3.6740 C   0  0  0  0  0  4           0  0  0
   -2.7079   -0.6194    6.0112 C   0  0  0  0  0  4           0  0  0
   -3.0997   -0.6117    4.6634 C   0  0  0  0  0  4           0  0  0
   -1.1147    0.6166    4.0666 C   0  0  0  0  0  4           0  0  0
   -1.5156    0.0137    6.3750 C   0  0  0  0  0  4           0  0  0
   -0.7216    0.6242    5.4063 C   0  0  0  0  0  4           0  0  0
   -3.5726   -1.2650    7.0492 C   0  0  0  0  0  4           0  0  0
    1.9727   -0.0000    1.3019 C   0  0  0  0  0  4           0  0  0
    3.4918    0.0000    1.1538 C   0  0  1  0  0  4           0  0  0
    3.9823    1.2390    0.3872 C   0  0  0  0  0  4           0  0  0
    4.1905   -0.0923    2.5198 C   0  0  0  0  0  4           0  0  0
    5.5028    1.2434    0.2402 C   0  0  0  0  0  4           0  0  0
    5.7112   -0.0884    2.3750 C   0  0  0  0  0  4           0  0  0
    6.2001    1.1260    1.5917 C   0  0  0  0  0  4           0  0  0
  1  6  2  0     0  0
  2  8  1  0     0  0
  2 19  1  0     0  0
  3 18  1  0     0  0
  4  8  2  0     0  0
  4  9  1  0     0  0
  5  9  2  0     0  0
  5 10  1  0     0  0
  6 11  1  0     0  0
  7  9  1  0     0  0
  7 12  1  0     0  0
  8 11  1  0     0  0
 10 11  2  0     0  0
 12 14  2  0     0  0
 12 15  1  0     0  0
 13 14  1  0     0  0
 13 16  2  0     0  0
 13 18  1  0     0  0
 15 17  2  0     0  0
 16 17  1  0     0  0
 19 20  1  0     0  0
 20 21  1  0     0  0
 20 22  1  0     0  0
 21 23  1  0     0  0
 22 24  1  0     0  0
 23 25  1  0     0  0
 24 25  1  0     0  0
M  END
> <Compound >
21

> <standard_type>
pIC50

> <# Confs.>
25

> <canonical_smiles>
O=NC(C(OCC1CCCCC1)=N2)=CN=C2NC3=CC(CO)=CC=C3

> <standard_relation>
=

> <predicted_activity_value>
6.57218942732401

> <actual_activity_value>
7.346787486224656

> <Publication ID>
nan

> <standard_units>
nM

> hash
1830935704564264604

$$$$
21_
XXILIB    08252103453D 0   0.00000     0.00000

 25 27  0     1  0            999 V2000
   -0.6306    0.5209   -3.3549 O   0  0  0  0  0  2           0  0  0
    1.3872   -0.0000    0.0000 O   0  0  0  0  0  2           0  0  0
    1.7077   -0.8894    4.7102 O   0  0  0  0  0  2           0  0  0
   -0.6646    0.0000    1.1816 N   0  0  0  0  0  3           0  0  0
   -2.7267   -0.0476   -0.0065 N   0  0  0  0  0  3           0  0  0
   -0.0049   -0.0358   -2.4449 N   0  0  0  0  0  3           0  0  0
   -2.7444   -0.0197    2.3454 N   0  0  0  0  0  3           0  0  0
    0.0000    0.0000    0.0000 C   0  0  0  0  0  4           0  0  0
   -2.0196   -0.0220    1.1463 C   0  0  0  0  0  4           0  0  0
   -2.0246   -0.0454   -1.1607 C   0  0  0  0  0  4           0  0  0
   -0.6454   -0.0124   -1.2270 C   0  0  0  0  0  4           0  0  0
   -2.3124    0.0025    3.6740 C   0  0  0  0  0  4           0  0  0
   -0.6012   -0.5881    5.3258 C   0  0  0  0  0  4           0  0  0
   -1.0805   -0.5872    4.0065 C   0  0  0  0  0  4           0  0  0
   -3.0623    0.5947    4.7001 C   0  0  0  0  0  4           0  0  0
   -1.3776   -0.0029    6.3304 C   0  0  0  0  0  4           0  0  0
   -2.5995    0.5891    6.0174 C   0  0  0  0  0  4           0  0  0
    0.7061   -1.2384    5.6577 C   0  0  0  0  0  4           0  0  0
    1.9727   -0.0000    1.3019 C   0  0  0  0  0  4           0  0  0
    3.4918    0.0000    1.1538 C   0  0  1  0  0  4           0  0  0
    3.9823    1.2390    0.3872 C   0  0  0  0  0  4           0  0  0
    4.1905   -0.0923    2.5198 C   0  0  0  0  0  4           0  0  0
    5.5028    1.2434    0.2402 C   0  0  0  0  0  4           0  0  0
    5.7112   -0.0884    2.3750 C   0  0  0  0  0  4           0  0  0
    6.2001    1.1260    1.5917 C   0  0  0  0  0  4           0  0  0
  1  6  2  0     0  0
  2  8  1  0     0  0
  2 19  1  0     0  0
  3 18  1  0     0  0
  4  8  2  0     0  0
  4  9  1  0     0  0
  5  9  2  0     0  0
  5 10  1  0     0  0
  6 11  1  0     0  0
  7  9  1  0     0  0
  7 12  1  0     0  0
  8 11  1  0     0  0
 10 11  2  0     0  0
 12 14  2  0     0  0
 12 15  1  0     0  0
 13 14  1  0     0  0
 13 16  2  0     0  0
 13 18  1  0     0  0
 15 17  2  0     0  0
 16 17  1  0     0  0
 19 20  1  0     0  0
 20 21  1  0     0  0
 20 22  1  0     0  0
 21 23  1  0     0  0
 22 24  1  0     0  0
 23 25  1  0     0  0
 24 25  1  0     0  0
M  END
> <Compound >
21

> <standard_type>
pIC50

> <# Confs.>
25

> <canonical_smiles>
O=NC(C(OCC1CCCCC1)=N2)=CN=C2NC3=CC(CO)=CC=C3

> <standard_relation>
=

> <predicted_activity_value>
6.57218942732401

> <actual_activity_value>
7.346787486224656

> <Publication ID>
nan

> <standard_units>
nM

> hash
1830935704564264604

$$$$
21_
XXILIB    08252103453D 0   0.00000     0.00000

 25 27  0     1  0            999 V2000
   -0.6404   -0.6081   -3.3383 O   0  0  0  0  0  2           0  0  0
    1.3872   -0.0000    0.0000 O   0  0  0  0  0  2           0  0  0
   -2.8314    2.1609    7.8780 O   0  0  0  0  0  2           0  0  0
   -0.6646    0.0000    1.1816 N   0  0  0  0  0  3           0  0  0
   -2.7267   -0.0476   -0.0065 N   0  0  0  0  0  3           0  0  0
   -0.0049   -0.0358   -2.4449 N   0  0  0  0  0  3           0  0  0
   -2.7444   -0.0197    2.3454 N   0  0  0  0  0  3           0  0  0
    0.0000    0.0000    0.0000 C   0  0  0  0  0  4           0  0  0
   -2.0196   -0.0220    1.1463 C   0  0  0  0  0  4           0  0  0
   -2.0246   -0.0454   -1.1607 C   0  0  0  0  0  4           0  0  0
   -0.6454   -0.0124   -1.2270 C   0  0  0  0  0  4           0  0  0
   -2.3124    0.0025    3.6740 C   0  0  0  0  0  4           0  0  0
   -2.7313    0.6596    5.9974 C   0  0  0  0  0  4           0  0  0
   -3.1192    0.6141    4.6493 C   0  0  0  0  0  4           0  0  0
   -1.0969   -0.5657    4.0805 C   0  0  0  0  0  4           0  0  0
   -1.5069    0.0974    6.3708 C   0  0  0  0  0  4           0  0  0
   -0.6967   -0.5158    5.4173 C   0  0  0  0  0  4           0  0  0
   -3.6000    1.3324    7.0147 C   0  0  0  0  0  4           0  0  0
    1.9727   -0.0000    1.3019 C   0  0  0  0  0  4           0  0  0
    3.4918    0.0000    1.1538 C   0  0  1  0  0  4           0  0  0
    3.9823   -1.2390    0.3872 C   0  0  0  0  0  4           0  0  0
    3.9905    1.2823    0.4685 C   0  0  0  0  0  4           0  0  0
    5.5022   -1.2402    0.2346 C   0  0  0  0  0  4           0  0  0
    5.5104    1.2833    0.3151 C   0  0  0  0  0  4           0  0  0
    6.0038    0.0420   -0.4219 C   0  0  0  0  0  4           0  0  0
  1  6  2  0     0  0
  2  8  1  0     0  0
  2 19  1  0     0  0
  3 18  1  0     0  0
  4  8  2  0     0  0
  4  9  1  0     0  0
  5  9  2  0     0  0
  5 10  1  0     0  0
  6 11  1  0     0  0
  7  9  1  0     0  0
  7 12  1  0     0  0
  8 11  1  0     0  0
 10 11  2  0     0  0
 12 14  2  0     0  0
 12 15  1  0     0  0
 13 14  1  0     0  0
 13 16  2  0     0  0
 13 18  1  0     0  0
 15 17  2  0     0  0
 16 17  1  0     0  0
 19 20  1  0     0  0
 20 21  1  0     0  0
 20 22  1  0     0  0
 21 23  1  0     0  0
 22 24  1  0     0  0
 23 25  1  0     0  0
 24 25  1  0     0  0
M  END
> <Compound >
21

> <standard_type>
pIC50

> <# Confs.>
25

> <canonical_smiles>
O=NC(C(OCC1CCCCC1)=N2)=CN=C2NC3=CC(CO)=CC=C3

> <standard_relation>
=

> <predicted_activity_value>
6.57218942732401

> <actual_activity_value>
7.346787486224656

> <Publication ID>
nan

> <standard_units>
nM

> hash
1830935704564264604

$$$$
21_
XXILIB    08252103453D 0   0.00000     0.00000

 25 27  0     1  0            999 V2000
   -0.6306    0.5209   -3.3549 O   0  0  0  0  0  2           0  0  0
    1.3872   -0.0000    0.0000 O   0  0  0  0  0  2           0  0  0
    1.7077   -0.8894    4.7102 O   0  0  0  0  0  2           0  0  0
   -0.6646    0.0000    1.1816 N   0  0  0  0  0  3           0  0  0
   -2.7267   -0.0476   -0.0065 N   0  0  0  0  0  3           0  0  0
   -0.0049   -0.0358   -2.4449 N   0  0  0  0  0  3           0  0  0
   -2.7444   -0.0197    2.3454 N   0  0  0  0  0  3           0  0  0
    0.0000    0.0000    0.0000 C   0  0  0  0  0  4           0  0  0
   -2.0196   -0.0220    1.1463 C   0  0  0  0  0  4           0  0  0
   -2.0246   -0.0454   -1.1607 C   0  0  0  0  0  4           0  0  0
   -0.6454   -0.0124   -1.2270 C   0  0  0  0  0  4           0  0  0
   -2.3124    0.0025    3.6740 C   0  0  0  0  0  4           0  0  0
   -0.6012   -0.5881    5.3258 C   0  0  0  0  0  4           0  0  0
   -1.0805   -0.5872    4.0065 C   0  0  0  0  0  4           0  0  0
   -3.0623    0.5947    4.7001 C   0  0  0  0  0  4           0  0  0
   -1.3776   -0.0029    6.3304 C   0  0  0  0  0  4           0  0  0
   -2.5995    0.5891    6.0174 C   0  0  0  0  0  4           0  0  0
    0.7061   -1.2384    5.6577 C   0  0  0  0  0  4           0  0  0
    1.9727   -0.0000    1.3019 C   0  0  0  0  0  4           0  0  0
    3.4918    0.0000    1.1538 C   0  0  1  0  0  4           0  0  0
    4.1905   -0.0000    2.5231 C   0  0  0  0  0  4           0  0  0
    3.9750   -1.1899    0.3093 C   0  0  0  0  0  4           0  0  0
    5.7112   -0.0032    2.3781 C   0  0  0  0  0  4           0  0  0
    5.4955   -1.1949    0.1627 C   0  0  0  0  0  4           0  0  0
    6.1931   -1.1680    1.5192 C   0  0  0  0  0  4           0  0  0
  1  6  2  0     0  0
  2  8  1  0     0  0
  2 19  1  0     0  0
  3 18  1  0     0  0
  4  8  2  0     0  0
  4  9  1  0     0  0
  5  9  2  0     0  0
  5 10  1  0     0  0
  6 11  1  0     0  0
  7  9  1  0     0  0
  7 12  1  0     0  0
  8 11  1  0     0  0
 10 11  2  0     0  0
 12 14  2  0     0  0
 12 15  1  0     0  0
 13 14  1  0     0  0
 13 16  2  0     0  0
 13 18  1  0     0  0
 15 17  2  0     0  0
 16 17  1  0     0  0
 19 20  1  0     0  0
 20 21  1  0     0  0
 20 22  1  0     0  0
 21 23  1  0     0  0
 22 24  1  0     0  0
 23 25  1  0     0  0
 24 25  1  0     0  0
M  END
> <Compound >
21

> <standard_type>
pIC50

> <# Confs.>
25

> <canonical_smiles>
O=NC(C(OCC1CCCCC1)=N2)=CN=C2NC3=CC(CO)=CC=C3

> <standard_relation>
=

> <predicted_activity_value>
6.57218942732401

> <actual_activity_value>
7.346787486224656

> <Publication ID>
nan

> <standard_units>
nM

> hash
1830935704564264604

$$$$
21_
XXILIB    08252103453D 0   0.00000     0.00000

 25 27  0     1  0            999 V2000
   -0.6404   -0.6081   -3.3383 O   0  0  0  0  0  2           0  0  0
    1.3872   -0.0000    0.0000 O   0  0  0  0  0  2           0  0  0
   -3.6930   -0.4404    8.2016 O   0  0  0  0  0  2           0  0  0
   -0.6646    0.0000    1.1816 N   0  0  0  0  0  3           0  0  0
   -2.7267   -0.0476   -0.0065 N   0  0  0  0  0  3           0  0  0
   -0.0049   -0.0358   -2.4449 N   0  0  0  0  0  3           0  0  0
   -2.7444   -0.0197    2.3454 N   0  0  0  0  0  3           0  0  0
    0.0000    0.0000    0.0000 C   0  0  0  0  0  4           0  0  0
   -2.0196   -0.0220    1.1463 C   0  0  0  0  0  4           0  0  0
   -2.0246   -0.0454   -1.1607 C   0  0  0  0  0  4           0  0  0
   -0.6454   -0.0124   -1.2270 C   0  0  0  0  0  4           0  0  0
   -2.3124    0.0025    3.6740 C   0  0  0  0  0  4           0  0  0
   -2.7079   -0.6194    6.0112 C   0  0  0  0  0  4           0  0  0
   -3.0997   -0.6117    4.6634 C   0  0  0  0  0  4           0  0  0
   -1.1147    0.6166    4.0666 C   0  0  0  0  0  4           0  0  0
   -1.5156    0.0137    6.3750 C   0  0  0  0  0  4           0  0  0
   -0.7216    0.6242    5.4063 C   0  0  0  0  0  4           0  0  0
   -3.5726   -1.2650    7.0492 C   0  0  0  0  0  4           0  0  0
    1.9727   -0.0000    1.3019 C   0  0  0  0  0  4           0  0  0
    3.4918    0.0000    1.1538 C   0  0  1  0  0  4           0  0  0
    3.9823   -1.2390    0.3872 C   0  0  0  0  0  4           0  0  0
    3.9905    1.2823    0.4685 C   0  0  0  0  0  4           0  0  0
    5.5022   -1.2402    0.2346 C   0  0  0  0  0  4           0  0  0
    5.5104    1.2833    0.3151 C   0  0  0  0  0  4           0  0  0
    6.0038    0.0420   -0.4219 C   0  0  0  0  0  4           0  0  0
  1  6  2  0     0  0
  2  8  1  0     0  0
  2 19  1  0     0  0
  3 18  1  0     0  0
  4  8  2  0     0  0
  4  9  1  0     0  0
  5  9  2  0     0  0
  5 10  1  0     0  0
  6 11  1  0     0  0
  7  9  1  0     0  0
  7 12  1  0     0  0
  8 11  1  0     0  0
 10 11  2  0     0  0
 12 14  2  0     0  0
 12 15  1  0     0  0
 13 14  1  0     0  0
 13 16  2  0     0  0
 13 18  1  0     0  0
 15 17  2  0     0  0
 16 17  1  0     0  0
 19 20  1  0     0  0
 20 21  1  0     0  0
 20 22  1  0     0  0
 21 23  1  0     0  0
 22 24  1  0     0  0
 23 25  1  0     0  0
 24 25  1  0     0  0
M  END
> <Compound >
21

> <standard_type>
pIC50

> <# Confs.>
25

> <canonical_smiles>
O=NC(C(OCC1CCCCC1)=N2)=CN=C2NC3=CC(CO)=CC=C3

> <standard_relation>
=

> <predicted_activity_value>
6.57218942732401

> <actual_activity_value>
7.346787486224656

> <Publication ID>
nan

> <standard_units>
nM

> hash
1830935704564264604

$$$$
21_
XXILIB    08252103453D 0   0.00000     0.00000

 25 27  0     1  0            999 V2000
   -0.6306    0.5209   -3.3549 O   0  0  0  0  0  2           0  0  0
    1.3872   -0.0000    0.0000 O   0  0  0  0  0  2           0  0  0
   -4.9637    0.9647    6.8482 O   0  0  0  0  0  2           0  0  0
   -0.6646    0.0000    1.1816 N   0  0  0  0  0  3           0  0  0
   -2.7267   -0.0476   -0.0065 N   0  0  0  0  0  3           0  0  0
   -0.0049   -0.0358   -2.4449 N   0  0  0  0  0  3           0  0  0
   -2.7444   -0.0197    2.3454 N   0  0  0  0  0  3           0  0  0
    0.0000    0.0000    0.0000 C   0  0  0  0  0  4           0  0  0
   -2.0196   -0.0220    1.1463 C   0  0  0  0  0  4           0  0  0
   -2.0246   -0.0454   -1.1607 C   0  0  0  0  0  4           0  0  0
   -0.6454   -0.0124   -1.2270 C   0  0  0  0  0  4           0  0  0
   -2.3124    0.0025    3.6740 C   0  0  0  0  0  4           0  0  0
   -2.7313    0.6596    5.9974 C   0  0  0  0  0  4           0  0  0
   -3.1192    0.6141    4.6493 C   0  0  0  0  0  4           0  0  0
   -1.0969   -0.5657    4.0805 C   0  0  0  0  0  4           0  0  0
   -1.5069    0.0974    6.3708 C   0  0  0  0  0  4           0  0  0
   -0.6967   -0.5158    5.4173 C   0  0  0  0  0  4           0  0  0
   -3.6000    1.3324    7.0147 C   0  0  0  0  0  4           0  0  0
    1.9727   -0.0000    1.3019 C   0  0  0  0  0  4           0  0  0
    3.4918    0.0000    1.1538 C   0  0  1  0  0  4           0  0  0
    4.0088   -1.2316    0.3889 C   0  0  0  0  0  4           0  0  0
    4.1885    0.1150    2.5180 C   0  0  0  0  0  4           0  0  0
    3.9278   -2.5189    1.2082 C   0  0  0  0  0  4           0  0  0
    4.1024   -1.1699    3.3399 C   0  0  0  0  0  4           0  0  0
    4.6223   -2.3724    2.5586 C   0  0  0  0  0  4           0  0  0
  1  6  2  0     0  0
  2  8  1  0     0  0
  2 19  1  0     0  0
  3 18  1  0     0  0
  4  8  2  0     0  0
  4  9  1  0     0  0
  5  9  2  0     0  0
  5 10  1  0     0  0
  6 11  1  0     0  0
  7  9  1  0     0  0
  7 12  1  0     0  0
  8 11  1  0     0  0
 10 11  2  0     0  0
 12 14  2  0     0  0
 12 15  1  0     0  0
 13 14  1  0     0  0
 13 16  2  0     0  0
 13 18  1  0     0  0
 15 17  2  0     0  0
 16 17  1  0     0  0
 19 20  1  0     0  0
 20 21  1  0     0  0
 20 22  1  0     0  0
 21 23  1  0     0  0
 22 24  1  0     0  0
 23 25  1  0     0  0
 24 25  1  0     0  0
M  END
> <Compound >
21

> <standard_type>
pIC50

> <# Confs.>
25

> <canonical_smiles>
O=NC(C(OCC1CCCCC1)=N2)=CN=C2NC3=CC(CO)=CC=C3

> <standard_relation>
=

> <predicted_activity_value>
6.57218942732401

> <actual_activity_value>
7.346787486224656

> <Publication ID>
nan

> <standard_units>
nM

> hash
1830935704564264604

$$$$
21_
XXILIB    08252103453D 0   0.00000     0.00000

 25 27  0     1  0            999 V2000
   -0.6306    0.5209   -3.3549 O   0  0  0  0  0  2           0  0  0
    1.3872   -0.0000    0.0000 O   0  0  0  0  0  2           0  0  0
    1.7077   -0.8894    4.7102 O   0  0  0  0  0  2           0  0  0
   -0.6646    0.0000    1.1816 N   0  0  0  0  0  3           0  0  0
   -2.7267   -0.0476   -0.0065 N   0  0  0  0  0  3           0  0  0
   -0.0049   -0.0358   -2.4449 N   0  0  0  0  0  3           0  0  0
   -2.7444   -0.0197    2.3454 N   0  0  0  0  0  3           0  0  0
    0.0000    0.0000    0.0000 C   0  0  0  0  0  4           0  0  0
   -2.0196   -0.0220    1.1463 C   0  0  0  0  0  4           0  0  0
   -2.0246   -0.0454   -1.1607 C   0  0  0  0  0  4           0  0  0
   -0.6454   -0.0124   -1.2270 C   0  0  0  0  0  4           0  0  0
   -2.3124    0.0025    3.6740 C   0  0  0  0  0  4           0  0  0
   -0.6012   -0.5881    5.3258 C   0  0  0  0  0  4           0  0  0
   -1.0805   -0.5872    4.0065 C   0  0  0  0  0  4           0  0  0
   -3.0623    0.5947    4.7001 C   0  0  0  0  0  4           0  0  0
   -1.3776   -0.0029    6.3304 C   0  0  0  0  0  4           0  0  0
   -2.5995    0.5891    6.0174 C   0  0  0  0  0  4           0  0  0
    0.7061   -1.2384    5.6577 C   0  0  0  0  0  4           0  0  0
    1.9727   -0.0000    1.3019 C   0  0  0  0  0  4           0  0  0
    3.4918    0.0000    1.1538 C   0  0  1  0  0  4           0  0  0
    3.9823   -1.2390    0.3872 C   0  0  0  0  0  4           0  0  0
    3.9905    1.2823    0.4685 C   0  0  0  0  0  4           0  0  0
    5.5022   -1.2402    0.2346 C   0  0  0  0  0  4           0  0  0
    5.5104    1.2833    0.3151 C   0  0  0  0  0  4           0  0  0
    6.0038    0.0420   -0.4219 C   0  0  0  0  0  4           0  0  0
  1  6  2  0     0  0
  2  8  1  0     0  0
  2 19  1  0     0  0
  3 18  1  0     0  0
  4  8  2  0     0  0
  4  9  1  0     0  0
  5  9  2  0     0  0
  5 10  1  0     0  0
  6 11  1  0     0  0
  7  9  1  0     0  0
  7 12  1  0     0  0
  8 11  1  0     0  0
 10 11  2  0     0  0
 12 14  2  0     0  0
 12 15  1  0     0  0
 13 14  1  0     0  0
 13 16  2  0     0  0
 13 18  1  0     0  0
 15 17  2  0     0  0
 16 17  1  0     0  0
 19 20  1  0     0  0
 20 21  1  0     0  0
 20 22  1  0     0  0
 21 23  1  0     0  0
 22 24  1  0     0  0
 23 25  1  0     0  0
 24 25  1  0     0  0
M  END
> <Compound >
21

> <standard_type>
pIC50

> <# Confs.>
25

> <canonical_smiles>
O=NC(C(OCC1CCCCC1)=N2)=CN=C2NC3=CC(CO)=CC=C3

> <standard_relation>
=

> <predicted_activity_value>
6.57218942732401

> <actual_activity_value>
7.346787486224656

> <Publication ID>
nan

> <standard_units>
nM

> hash
1830935704564264604

$$$$
21_
XXILIB    08252103453D 0   0.00000     0.00000

 25 27  0     1  0            999 V2000
   -0.6306    0.5209   -3.3549 O   0  0  0  0  0  2           0  0  0
    1.3872   -0.0000    0.0000 O   0  0  0  0  0  2           0  0  0
    0.6001   -2.0328    6.8325 O   0  0  0  0  0  2           0  0  0
   -0.6646    0.0000    1.1816 N   0  0  0  0  0  3           0  0  0
   -2.7267   -0.0476   -0.0065 N   0  0  0  0  0  3           0  0  0
   -0.0049   -0.0358   -2.4449 N   0  0  0  0  0  3           0  0  0
   -2.7444   -0.0197    2.3454 N   0  0  0  0  0  3           0  0  0
    0.0000    0.0000    0.0000 C   0  0  0  0  0  4           0  0  0
   -2.0196   -0.0220    1.1463 C   0  0  0  0  0  4           0  0  0
   -2.0246   -0.0454   -1.1607 C   0  0  0  0  0  4           0  0  0
   -0.6454   -0.0124   -1.2270 C   0  0  0  0  0  4           0  0  0
   -2.3124    0.0025    3.6740 C   0  0  0  0  0  4           0  0  0
   -0.6012   -0.5881    5.3258 C   0  0  0  0  0  4           0  0  0
   -1.0805   -0.5872    4.0065 C   0  0  0  0  0  4           0  0  0
   -3.0623    0.5947    4.7001 C   0  0  0  0  0  4           0  0  0
   -1.3776   -0.0029    6.3304 C   0  0  0  0  0  4           0  0  0
   -2.5995    0.5891    6.0174 C   0  0  0  0  0  4           0  0  0
    0.7061   -1.2384    5.6577 C   0  0  0  0  0  4           0  0  0
    1.9727   -0.0000    1.3019 C   0  0  0  0  0  4           0  0  0
    3.4918    0.0000    1.1538 C   0  0  1  0  0  4           0  0  0
    3.9823    1.2390    0.3872 C   0  0  0  0  0  4           0  0  0
    4.1905   -0.0923    2.5198 C   0  0  0  0  0  4           0  0  0
    5.5028    1.2434    0.2402 C   0  0  0  0  0  4           0  0  0
    5.7112   -0.0884    2.3750 C   0  0  0  0  0  4           0  0  0
    6.2001    1.1260    1.5917 C   0  0  0  0  0  4           0  0  0
  1  6  2  0     0  0
  2  8  1  0     0  0
  2 19  1  0     0  0
  3 18  1  0     0  0
  4  8  2  0     0  0
  4  9  1  0     0  0
  5  9  2  0     0  0
  5 10  1  0     0  0
  6 11  1  0     0  0
  7  9  1  0     0  0
  7 12  1  0     0  0
  8 11  1  0     0  0
 10 11  2  0     0  0
 12 14  2  0     0  0
 12 15  1  0     0  0
 13 14  1  0     0  0
 13 16  2  0     0  0
 13 18  1  0     0  0
 15 17  2  0     0  0
 16 17  1  0     0  0
 19 20  1  0     0  0
 20 21  1  0     0  0
 20 22  1  0     0  0
 21 23  1  0     0  0
 22 24  1  0     0  0
 23 25  1  0     0  0
 24 25  1  0     0  0
M  END
> <Compound >
21

> <standard_type>
pIC50

> <# Confs.>
25

> <canonical_smiles>
O=NC(C(OCC1CCCCC1)=N2)=CN=C2NC3=CC(CO)=CC=C3

> <standard_relation>
=

> <predicted_activity_value>
6.57218942732401

> <actual_activity_value>
7.346787486224656

> <Publication ID>
nan

> <standard_units>
nM

> hash
1830935704564264604

$$$$
21_
XXILIB    08252103453D 0   0.00000     0.00000

 25 27  0     1  0            999 V2000
   -0.6306    0.5209   -3.3549 O   0  0  0  0  0  2           0  0  0
    1.3872   -0.0000    0.0000 O   0  0  0  0  0  2           0  0  0
    1.4618    0.5684    6.5089 O   0  0  0  0  0  2           0  0  0
   -0.6646    0.0000    1.1816 N   0  0  0  0  0  3           0  0  0
   -2.7267   -0.0476   -0.0065 N   0  0  0  0  0  3           0  0  0
   -0.0049   -0.0358   -2.4449 N   0  0  0  0  0  3           0  0  0
   -2.7444   -0.0197    2.3454 N   0  0  0  0  0  3           0  0  0
    0.0000    0.0000    0.0000 C   0  0  0  0  0  4           0  0  0
   -2.0196   -0.0220    1.1463 C   0  0  0  0  0  4           0  0  0
   -2.0246   -0.0454   -1.1607 C   0  0  0  0  0  4           0  0  0
   -0.6454   -0.0124   -1.2270 C   0  0  0  0  0  4           0  0  0
   -2.3124    0.0025    3.6740 C   0  0  0  0  0  4           0  0  0
   -0.6246    0.6908    5.3120 C   0  0  0  0  0  4           0  0  0
   -1.1000    0.6386    3.9924 C   0  0  0  0  0  4           0  0  0
   -3.0444   -0.5876    4.7141 C   0  0  0  0  0  4           0  0  0
   -1.3689    0.0808    6.3262 C   0  0  0  0  0  4           0  0  0
   -2.5747   -0.5509    6.0284 C   0  0  0  0  0  4           0  0  0
    0.6787    1.3590    5.6232 C   0  0  0  0  0  4           0  0  0
    1.9727   -0.0000    1.3019 C   0  0  0  0  0  4           0  0  0
    3.4918    0.0000    1.1538 C   0  0  1  0  0  4           0  0  0
    3.9823    1.2390    0.3872 C   0  0  0  0  0  4           0  0  0
    4.1905   -0.0923    2.5198 C   0  0  0  0  0  4           0  0  0
    5.5028    1.2434    0.2402 C   0  0  0  0  0  4           0  0  0
    5.7112   -0.0884    2.3750 C   0  0  0  0  0  4           0  0  0
    6.2001    1.1260    1.5917 C   0  0  0  0  0  4           0  0  0
  1  6  2  0     0  0
  2  8  1  0     0  0
  2 19  1  0     0  0
  3 18  1  0     0  0
  4  8  2  0     0  0
  4  9  1  0     0  0
  5  9  2  0     0  0
  5 10  1  0     0  0
  6 11  1  0     0  0
  7  9  1  0     0  0
  7 12  1  0     0  0
  8 11  1  0     0  0
 10 11  2  0     0  0
 12 14  2  0     0  0
 12 15  1  0     0  0
 13 14  1  0     0  0
 13 16  2  0     0  0
 13 18  1  0     0  0
 15 17  2  0     0  0
 16 17  1  0     0  0
 19 20  1  0     0  0
 20 21  1  0     0  0
 20 22  1  0     0  0
 21 23  1  0     0  0
 22 24  1  0     0  0
 23 25  1  0     0  0
 24 25  1  0     0  0
M  END
> <Compound >
21

> <standard_type>
pIC50

> <# Confs.>
25

> <canonical_smiles>
O=NC(C(OCC1CCCCC1)=N2)=CN=C2NC3=CC(CO)=CC=C3

> <standard_relation>
=

> <predicted_activity_value>
6.57218942732401

> <actual_activity_value>
7.346787486224656

> <Publication ID>
nan

> <standard_units>
nM

> hash
1830935704564264604

$$$$
21_
XXILIB    08252103453D 0   0.00000     0.00000

 25 27  0     1  0            999 V2000
   -0.6306    0.5209   -3.3549 O   0  0  0  0  0  2           0  0  0
    1.3872   -0.0000    0.0000 O   0  0  0  0  0  2           0  0  0
   -4.0446   -2.5319    6.6078 O   0  0  0  0  0  2           0  0  0
   -0.6646    0.0000    1.1816 N   0  0  0  0  0  3           0  0  0
   -2.7267   -0.0476   -0.0065 N   0  0  0  0  0  3           0  0  0
   -0.0049   -0.0358   -2.4449 N   0  0  0  0  0  3           0  0  0
   -2.7444   -0.0197    2.3454 N   0  0  0  0  0  3           0  0  0
    0.0000    0.0000    0.0000 C   0  0  0  0  0  4           0  0  0
   -2.0196   -0.0220    1.1463 C   0  0  0  0  0  4           0  0  0
   -2.0246   -0.0454   -1.1607 C   0  0  0  0  0  4           0  0  0
   -0.6454   -0.0124   -1.2270 C   0  0  0  0  0  4           0  0  0
   -2.3124    0.0025    3.6740 C   0  0  0  0  0  4           0  0  0
   -2.7079   -0.6194    6.0112 C   0  0  0  0  0  4           0  0  0
   -3.0997   -0.6117    4.6634 C   0  0  0  0  0  4           0  0  0
   -1.1147    0.6166    4.0666 C   0  0  0  0  0  4           0  0  0
   -1.5156    0.0137    6.3750 C   0  0  0  0  0  4           0  0  0
   -0.7216    0.6242    5.4063 C   0  0  0  0  0  4           0  0  0
   -3.5726   -1.2650    7.0492 C   0  0  0  0  0  4           0  0  0
    1.9727   -0.0000    1.3019 C   0  0  0  0  0  4           0  0  0
    3.4918    0.0000    1.1538 C   0  0  1  0  0  4           0  0  0
    4.0088   -1.2316    0.3889 C   0  0  0  0  0  4           0  0  0
    4.1885    0.1150    2.5180 C   0  0  0  0  0  4           0  0  0
    3.9278   -2.5189    1.2082 C   0  0  0  0  0  4           0  0  0
    4.1024   -1.1699    3.3399 C   0  0  0  0  0  4           0  0  0
    4.6223   -2.3724    2.5586 C   0  0  0  0  0  4           0  0  0
  1  6  2  0     0  0
  2  8  1  0     0  0
  2 19  1  0     0  0
  3 18  1  0     0  0
  4  8  2  0     0  0
  4  9  1  0     0  0
  5  9  2  0     0  0
  5 10  1  0     0  0
  6 11  1  0     0  0
  7  9  1  0     0  0
  7 12  1  0     0  0
  8 11  1  0     0  0
 10 11  2  0     0  0
 12 14  2  0     0  0
 12 15  1  0     0  0
 13 14  1  0     0  0
 13 16  2  0     0  0
 13 18  1  0     0  0
 15 17  2  0     0  0
 16 17  1  0     0  0
 19 20  1  0     0  0
 20 21  1  0     0  0
 20 22  1  0     0  0
 21 23  1  0     0  0
 22 24  1  0     0  0
 23 25  1  0     0  0
 24 25  1  0     0  0
M  END
> <Compound >
21

> <standard_type>
pIC50

> <# Confs.>
25

> <canonical_smiles>
O=NC(C(OCC1CCCCC1)=N2)=CN=C2NC3=CC(CO)=CC=C3

> <standard_relation>
=

> <predicted_activity_value>
6.57218942732401

> <actual_activity_value>
7.346787486224656

> <Publication ID>
nan

> <standard_units>
nM

> hash
1830935704564264604

$$$$
21_
XXILIB    08252103453D 0   0.00000     0.00000

 25 27  0     1  0            999 V2000
   -0.6306    0.5209   -3.3549 O   0  0  0  0  0  2           0  0  0
    1.3872   -0.0000    0.0000 O   0  0  0  0  0  2           0  0  0
    0.6001   -2.0328    6.8325 O   0  0  0  0  0  2           0  0  0
   -0.6646    0.0000    1.1816 N   0  0  0  0  0  3           0  0  0
   -2.7267   -0.0476   -0.0065 N   0  0  0  0  0  3           0  0  0
   -0.0049   -0.0358   -2.4449 N   0  0  0  0  0  3           0  0  0
   -2.7444   -0.0197    2.3454 N   0  0  0  0  0  3           0  0  0
    0.0000    0.0000    0.0000 C   0  0  0  0  0  4           0  0  0
   -2.0196   -0.0220    1.1463 C   0  0  0  0  0  4           0  0  0
   -2.0246   -0.0454   -1.1607 C   0  0  0  0  0  4           0  0  0
   -0.6454   -0.0124   -1.2270 C   0  0  0  0  0  4           0  0  0
   -2.3124    0.0025    3.6740 C   0  0  0  0  0  4           0  0  0
   -0.6012   -0.5881    5.3258 C   0  0  0  0  0  4           0  0  0
   -1.0805   -0.5872    4.0065 C   0  0  0  0  0  4           0  0  0
   -3.0623    0.5947    4.7001 C   0  0  0  0  0  4           0  0  0
   -1.3776   -0.0029    6.3304 C   0  0  0  0  0  4           0  0  0
   -2.5995    0.5891    6.0174 C   0  0  0  0  0  4           0  0  0
    0.7061   -1.2384    5.6577 C   0  0  0  0  0  4           0  0  0
    1.9727   -0.0000    1.3019 C   0  0  0  0  0  4           0  0  0
    3.4918    0.0000    1.1538 C   0  0  1  0  0  4           0  0  0
    4.1905   -0.0000    2.5231 C   0  0  0  0  0  4           0  0  0
    3.9750   -1.1899    0.3093 C   0  0  0  0  0  4           0  0  0
    5.7112   -0.0032    2.3781 C   0  0  0  0  0  4           0  0  0
    5.4955   -1.1949    0.1627 C   0  0  0  0  0  4           0  0  0
    6.1931   -1.1680    1.5192 C   0  0  0  0  0  4           0  0  0
  1  6  2  0     0  0
  2  8  1  0     0  0
  2 19  1  0     0  0
  3 18  1  0     0  0
  4  8  2  0     0  0
  4  9  1  0     0  0
  5  9  2  0     0  0
  5 10  1  0     0  0
  6 11  1  0     0  0
  7  9  1  0     0  0
  7 12  1  0     0  0
  8 11  1  0     0  0
 10 11  2  0     0  0
 12 14  2  0     0  0
 12 15  1  0     0  0
 13 14  1  0     0  0
 13 16  2  0     0  0
 13 18  1  0     0  0
 15 17  2  0     0  0
 16 17  1  0     0  0
 19 20  1  0     0  0
 20 21  1  0     0  0
 20 22  1  0     0  0
 21 23  1  0     0  0
 22 24  1  0     0  0
 23 25  1  0     0  0
 24 25  1  0     0  0
M  END
> <Compound >
21

> <standard_type>
pIC50

> <# Confs.>
25

> <canonical_smiles>
O=NC(C(OCC1CCCCC1)=N2)=CN=C2NC3=CC(CO)=CC=C3

> <standard_relation>
=

> <predicted_activity_value>
6.57218942732401

> <actual_activity_value>
7.346787486224656

> <Publication ID>
nan

> <standard_units>
nM

> hash
1830935704564264604

$$$$
21_
XXILIB    08252103453D 0   0.00000     0.00000

 25 27  0     1  0            999 V2000
   -0.6306    0.5209   -3.3549 O   0  0  0  0  0  2           0  0  0
    1.3872   -0.0000    0.0000 O   0  0  0  0  0  2           0  0  0
    1.4618    0.5684    6.5089 O   0  0  0  0  0  2           0  0  0
   -0.6646    0.0000    1.1816 N   0  0  0  0  0  3           0  0  0
   -2.7267   -0.0476   -0.0065 N   0  0  0  0  0  3           0  0  0
   -0.0049   -0.0358   -2.4449 N   0  0  0  0  0  3           0  0  0
   -2.7444   -0.0197    2.3454 N   0  0  0  0  0  3           0  0  0
    0.0000    0.0000    0.0000 C   0  0  0  0  0  4           0  0  0
   -2.0196   -0.0220    1.1463 C   0  0  0  0  0  4           0  0  0
   -2.0246   -0.0454   -1.1607 C   0  0  0  0  0  4           0  0  0
   -0.6454   -0.0124   -1.2270 C   0  0  0  0  0  4           0  0  0
   -2.3124    0.0025    3.6740 C   0  0  0  0  0  4           0  0  0
   -0.6246    0.6908    5.3120 C   0  0  0  0  0  4           0  0  0
   -1.1000    0.6386    3.9924 C   0  0  0  0  0  4           0  0  0
   -3.0444   -0.5876    4.7141 C   0  0  0  0  0  4           0  0  0
   -1.3689    0.0808    6.3262 C   0  0  0  0  0  4           0  0  0
   -2.5747   -0.5509    6.0284 C   0  0  0  0  0  4           0  0  0
    0.6787    1.3590    5.6232 C   0  0  0  0  0  4           0  0  0
    1.9727   -0.0000    1.3019 C   0  0  0  0  0  4           0  0  0
    3.4918    0.0000    1.1538 C   0  0  1  0  0  4           0  0  0
    4.1905   -0.0000    2.5231 C   0  0  0  0  0  4           0  0  0
    3.9750   -1.1899    0.3093 C   0  0  0  0  0  4           0  0  0
    5.7112   -0.0032    2.3781 C   0  0  0  0  0  4           0  0  0
    5.4955   -1.1949    0.1627 C   0  0  0  0  0  4           0  0  0
    6.1931   -1.1680    1.5192 C   0  0  0  0  0  4           0  0  0
  1  6  2  0     0  0
  2  8  1  0     0  0
  2 19  1  0     0  0
  3 18  1  0     0  0
  4  8  2  0     0  0
  4  9  1  0     0  0
  5  9  2  0     0  0
  5 10  1  0     0  0
  6 11  1  0     0  0
  7  9  1  0     0  0
  7 12  1  0     0  0
  8 11  1  0     0  0
 10 11  2  0     0  0
 12 14  2  0     0  0
 12 15  1  0     0  0
 13 14  1  0     0  0
 13 16  2  0     0  0
 13 18  1  0     0  0
 15 17  2  0     0  0
 16 17  1  0     0  0
 19 20  1  0     0  0
 20 21  1  0     0  0
 20 22  1  0     0  0
 21 23  1  0     0  0
 22 24  1  0     0  0
 23 25  1  0     0  0
 24 25  1  0     0  0
M  END
> <Compound >
21

> <standard_type>
pIC50

> <# Confs.>
25

> <canonical_smiles>
O=NC(C(OCC1CCCCC1)=N2)=CN=C2NC3=CC(CO)=CC=C3

> <standard_relation>
=

> <predicted_activity_value>
6.57218942732401

> <actual_activity_value>
7.346787486224656

> <Publication ID>
nan

> <standard_units>
nM

> hash
1830935704564264604

$$$$
21_
XXILIB    08252103453D 0   0.00000     0.00000

 25 27  0     1  0            999 V2000
   -0.6404   -0.6081   -3.3383 O   0  0  0  0  0  2           0  0  0
    1.3872   -0.0000    0.0000 O   0  0  0  0  0  2           0  0  0
    0.7885    2.6073    4.9506 O   0  0  0  0  0  2           0  0  0
   -0.6646    0.0000    1.1816 N   0  0  0  0  0  3           0  0  0
   -2.7267   -0.0476   -0.0065 N   0  0  0  0  0  3           0  0  0
   -0.0049   -0.0358   -2.4449 N   0  0  0  0  0  3           0  0  0
   -2.7444   -0.0197    2.3454 N   0  0  0  0  0  3           0  0  0
    0.0000    0.0000    0.0000 C   0  0  0  0  0  4           0  0  0
   -2.0196   -0.0220    1.1463 C   0  0  0  0  0  4           0  0  0
   -2.0246   -0.0454   -1.1607 C   0  0  0  0  0  4           0  0  0
   -0.6454   -0.0124   -1.2270 C   0  0  0  0  0  4           0  0  0
   -2.3124    0.0025    3.6740 C   0  0  0  0  0  4           0  0  0
   -0.6246    0.6908    5.3120 C   0  0  0  0  0  4           0  0  0
   -1.1000    0.6386    3.9924 C   0  0  0  0  0  4           0  0  0
   -3.0444   -0.5876    4.7141 C   0  0  0  0  0  4           0  0  0
   -1.3689    0.0808    6.3262 C   0  0  0  0  0  4           0  0  0
   -2.5747   -0.5509    6.0284 C   0  0  0  0  0  4           0  0  0
    0.6787    1.3590    5.6232 C   0  0  0  0  0  4           0  0  0
    1.9727   -0.0000    1.3019 C   0  0  0  0  0  4           0  0  0
    3.4918    0.0000    1.1538 C   0  0  1  0  0  4           0  0  0
    3.9823    1.2390    0.3872 C   0  0  0  0  0  4           0  0  0
    4.1905   -0.0923    2.5198 C   0  0  0  0  0  4           0  0  0
    5.5028    1.2434    0.2402 C   0  0  0  0  0  4           0  0  0
    5.7112   -0.0884    2.3750 C   0  0  0  0  0  4           0  0  0
    6.2001    1.1260    1.5917 C   0  0  0  0  0  4           0  0  0
  1  6  2  0     0  0
  2  8  1  0     0  0
  2 19  1  0     0  0
  3 18  1  0     0  0
  4  8  2  0     0  0
  4  9  1  0     0  0
  5  9  2  0     0  0
  5 10  1  0     0  0
  6 11  1  0     0  0
  7  9  1  0     0  0
  7 12  1  0     0  0
  8 11  1  0     0  0
 10 11  2  0     0  0
 12 14  2  0     0  0
 12 15  1  0     0  0
 13 14  1  0     0  0
 13 16  2  0     0  0
 13 18  1  0     0  0
 15 17  2  0     0  0
 16 17  1  0     0  0
 19 20  1  0     0  0
 20 21  1  0     0  0
 20 22  1  0     0  0
 21 23  1  0     0  0
 22 24  1  0     0  0
 23 25  1  0     0  0
 24 25  1  0     0  0
M  END
> <Compound >
21

> <standard_type>
pIC50

> <# Confs.>
25

> <canonical_smiles>
O=NC(C(OCC1CCCCC1)=N2)=CN=C2NC3=CC(CO)=CC=C3

> <standard_relation>
=

> <predicted_activity_value>
6.57218942732401

> <actual_activity_value>
7.346787486224656

> <Publication ID>
nan

> <standard_units>
nM

> hash
1830935704564264604

$$$$
21_
XXILIB    08252103453D 0   0.00000     0.00000

 25 27  0     1  0            999 V2000
   -0.6306    0.5209   -3.3549 O   0  0  0  0  0  2           0  0  0
    1.3872   -0.0000    0.0000 O   0  0  0  0  0  2           0  0  0
    0.6001   -2.0328    6.8325 O   0  0  0  0  0  2           0  0  0
   -0.6646    0.0000    1.1816 N   0  0  0  0  0  3           0  0  0
   -2.7267   -0.0476   -0.0065 N   0  0  0  0  0  3           0  0  0
   -0.0049   -0.0358   -2.4449 N   0  0  0  0  0  3           0  0  0
   -2.7444   -0.0197    2.3454 N   0  0  0  0  0  3           0  0  0
    0.0000    0.0000    0.0000 C   0  0  0  0  0  4           0  0  0
   -2.0196   -0.0220    1.1463 C   0  0  0  0  0  4           0  0  0
   -2.0246   -0.0454   -1.1607 C   0  0  0  0  0  4           0  0  0
   -0.6454   -0.0124   -1.2270 C   0  0  0  0  0  4           0  0  0
   -2.3124    0.0025    3.6740 C   0  0  0  0  0  4           0  0  0
   -0.6012   -0.5881    5.3258 C   0  0  0  0  0  4           0  0  0
   -1.0805   -0.5872    4.0065 C   0  0  0  0  0  4           0  0  0
   -3.0623    0.5947    4.7001 C   0  0  0  0  0  4           0  0  0
   -1.3776   -0.0029    6.3304 C   0  0  0  0  0  4           0  0  0
   -2.5995    0.5891    6.0174 C   0  0  0  0  0  4           0  0  0
    0.7061   -1.2384    5.6577 C   0  0  0  0  0  4           0  0  0
    1.9727   -0.0000    1.3019 C   0  0  0  0  0  4           0  0  0
    3.4918    0.0000    1.1538 C   0  0  1  0  0  4           0  0  0
    3.9823   -1.2390    0.3872 C   0  0  0  0  0  4           0  0  0
    3.9905    1.2823    0.4685 C   0  0  0  0  0  4           0  0  0
    5.5022   -1.2402    0.2346 C   0  0  0  0  0  4           0  0  0
    5.5104    1.2833    0.3151 C   0  0  0  0  0  4           0  0  0
    6.0038    0.0420   -0.4219 C   0  0  0  0  0  4           0  0  0
  1  6  2  0     0  0
  2  8  1  0     0  0
  2 19  1  0     0  0
  3 18  1  0     0  0
  4  8  2  0     0  0
  4  9  1  0     0  0
  5  9  2  0     0  0
  5 10  1  0     0  0
  6 11  1  0     0  0
  7  9  1  0     0  0
  7 12  1  0     0  0
  8 11  1  0     0  0
 10 11  2  0     0  0
 12 14  2  0     0  0
 12 15  1  0     0  0
 13 14  1  0     0  0
 13 16  2  0     0  0
 13 18  1  0     0  0
 15 17  2  0     0  0
 16 17  1  0     0  0
 19 20  1  0     0  0
 20 21  1  0     0  0
 20 22  1  0     0  0
 21 23  1  0     0  0
 22 24  1  0     0  0
 23 25  1  0     0  0
 24 25  1  0     0  0
M  END
> <Compound >
21

> <standard_type>
pIC50

> <# Confs.>
25

> <canonical_smiles>
O=NC(C(OCC1CCCCC1)=N2)=CN=C2NC3=CC(CO)=CC=C3

> <standard_relation>
=

> <predicted_activity_value>
6.57218942732401

> <actual_activity_value>
7.346787486224656

> <Publication ID>
nan

> <standard_units>
nM

> hash
1830935704564264604

$$$$
21_
XXILIB    08252103453D 0   0.00000     0.00000

 25 27  0     1  0            999 V2000
   -0.6306    0.5209   -3.3549 O   0  0  0  0  0  2           0  0  0
    1.3872   -0.0000    0.0000 O   0  0  0  0  0  2           0  0  0
   -4.9637    0.9647    6.8482 O   0  0  0  0  0  2           0  0  0
   -0.6646    0.0000    1.1816 N   0  0  0  0  0  3           0  0  0
   -2.7267   -0.0476   -0.0065 N   0  0  0  0  0  3           0  0  0
   -0.0049   -0.0358   -2.4449 N   0  0  0  0  0  3           0  0  0
   -2.7444   -0.0197    2.3454 N   0  0  0  0  0  3           0  0  0
    0.0000    0.0000    0.0000 C   0  0  0  0  0  4           0  0  0
   -2.0196   -0.0220    1.1463 C   0  0  0  0  0  4           0  0  0
   -2.0246   -0.0454   -1.1607 C   0  0  0  0  0  4           0  0  0
   -0.6454   -0.0124   -1.2270 C   0  0  0  0  0  4           0  0  0
   -2.3124    0.0025    3.6740 C   0  0  0  0  0  4           0  0  0
   -2.7313    0.6596    5.9974 C   0  0  0  0  0  4           0  0  0
   -3.1192    0.6141    4.6493 C   0  0  0  0  0  4           0  0  0
   -1.0969   -0.5657    4.0805 C   0  0  0  0  0  4           0  0  0
   -1.5069    0.0974    6.3708 C   0  0  0  0  0  4           0  0  0
   -0.6967   -0.5158    5.4173 C   0  0  0  0  0  4           0  0  0
   -3.6000    1.3324    7.0147 C   0  0  0  0  0  4           0  0  0
    1.9727   -0.0000    1.3019 C   0  0  0  0  0  4           0  0  0
    3.4918    0.0000    1.1538 C   0  0  1  0  0  4           0  0  0
    4.2158    0.0000    2.5121 C   0  0  0  0  0  4           0  0  0
    3.9714    1.1769    0.2909 C   0  0  0  0  0  4           0  0  0
    4.1254    1.3430    3.2353 C   0  0  0  0  0  4           0  0  0
    3.8754    2.5205    1.0115 C   0  0  0  0  0  4           0  0  0
    4.6022    2.4921    2.3523 C   0  0  0  0  0  4           0  0  0
  1  6  2  0     0  0
  2  8  1  0     0  0
  2 19  1  0     0  0
  3 18  1  0     0  0
  4  8  2  0     0  0
  4  9  1  0     0  0
  5  9  2  0     0  0
  5 10  1  0     0  0
  6 11  1  0     0  0
  7  9  1  0     0  0
  7 12  1  0     0  0
  8 11  1  0     0  0
 10 11  2  0     0  0
 12 14  2  0     0  0
 12 15  1  0     0  0
 13 14  1  0     0  0
 13 16  2  0     0  0
 13 18  1  0     0  0
 15 17  2  0     0  0
 16 17  1  0     0  0
 19 20  1  0     0  0
 20 21  1  0     0  0
 20 22  1  0     0  0
 21 23  1  0     0  0
 22 24  1  0     0  0
 23 25  1  0     0  0
 24 25  1  0     0  0
M  END
> <Compound >
21

> <standard_type>
pIC50

> <# Confs.>
25

> <canonical_smiles>
O=NC(C(OCC1CCCCC1)=N2)=CN=C2NC3=CC(CO)=CC=C3

> <standard_relation>
=

> <predicted_activity_value>
6.57218942732401

> <actual_activity_value>
7.346787486224656

> <Publication ID>
nan

> <standard_units>
nM

> hash
1830935704564264604

$$$$
21_
XXILIB    08252103453D 0   0.00000     0.00000

 25 27  0     1  0            999 V2000
   -0.6306    0.5209   -3.3549 O   0  0  0  0  0  2           0  0  0
    1.3872   -0.0000    0.0000 O   0  0  0  0  0  2           0  0  0
    1.4618    0.5684    6.5089 O   0  0  0  0  0  2           0  0  0
   -0.6646    0.0000    1.1816 N   0  0  0  0  0  3           0  0  0
   -2.7267   -0.0476   -0.0065 N   0  0  0  0  0  3           0  0  0
   -0.0049   -0.0358   -2.4449 N   0  0  0  0  0  3           0  0  0
   -2.7444   -0.0197    2.3454 N   0  0  0  0  0  3           0  0  0
    0.0000    0.0000    0.0000 C   0  0  0  0  0  4           0  0  0
   -2.0196   -0.0220    1.1463 C   0  0  0  0  0  4           0  0  0
   -2.0246   -0.0454   -1.1607 C   0  0  0  0  0  4           0  0  0
   -0.6454   -0.0124   -1.2270 C   0  0  0  0  0  4           0  0  0
   -2.3124    0.0025    3.6740 C   0  0  0  0  0  4           0  0  0
   -0.6246    0.6908    5.3120 C   0  0  0  0  0  4           0  0  0
   -1.1000    0.6386    3.9924 C   0  0  0  0  0  4           0  0  0
   -3.0444   -0.5876    4.7141 C   0  0  0  0  0  4           0  0  0
   -1.3689    0.0808    6.3262 C   0  0  0  0  0  4           0  0  0
   -2.5747   -0.5509    6.0284 C   0  0  0  0  0  4           0  0  0
    0.6787    1.3590    5.6232 C   0  0  0  0  0  4           0  0  0
    1.9727   -0.0000    1.3019 C   0  0  0  0  0  4           0  0  0
    3.4918    0.0000    1.1538 C   0  0  1  0  0  4           0  0  0
    3.9823   -1.2390    0.3872 C   0  0  0  0  0  4           0  0  0
    3.9905    1.2823    0.4685 C   0  0  0  0  0  4           0  0  0
    5.5022   -1.2402    0.2346 C   0  0  0  0  0  4           0  0  0
    5.5104    1.2833    0.3151 C   0  0  0  0  0  4           0  0  0
    6.0038    0.0420   -0.4219 C   0  0  0  0  0  4           0  0  0
  1  6  2  0     0  0
  2  8  1  0     0  0
  2 19  1  0     0  0
  3 18  1  0     0  0
  4  8  2  0     0  0
  4  9  1  0     0  0
  5  9  2  0     0  0
  5 10  1  0     0  0
  6 11  1  0     0  0
  7  9  1  0     0  0
  7 12  1  0     0  0
  8 11  1  0     0  0
 10 11  2  0     0  0
 12 14  2  0     0  0
 12 15  1  0     0  0
 13 14  1  0     0  0
 13 16  2  0     0  0
 13 18  1  0     0  0
 15 17  2  0     0  0
 16 17  1  0     0  0
 19 20  1  0     0  0
 20 21  1  0     0  0
 20 22  1  0     0  0
 21 23  1  0     0  0
 22 24  1  0     0  0
 23 25  1  0     0  0
 24 25  1  0     0  0
M  END
> <Compound >
21

> <standard_type>
pIC50

> <# Confs.>
25

> <canonical_smiles>
O=NC(C(OCC1CCCCC1)=N2)=CN=C2NC3=CC(CO)=CC=C3

> <standard_relation>
=

> <predicted_activity_value>
6.57218942732401

> <actual_activity_value>
7.346787486224656

> <Publication ID>
nan

> <standard_units>
nM

> hash
1830935704564264604

$$$$
21_
XXILIB    08252103453D 0   0.00000     0.00000

 25 27  0     1  0            999 V2000
   -0.6404   -0.6081   -3.3383 O   0  0  0  0  0  2           0  0  0
    1.3872   -0.0000    0.0000 O   0  0  0  0  0  2           0  0  0
    0.7885    2.6073    4.9506 O   0  0  0  0  0  2           0  0  0
   -0.6646    0.0000    1.1816 N   0  0  0  0  0  3           0  0  0
   -2.7267   -0.0476   -0.0065 N   0  0  0  0  0  3           0  0  0
   -0.0049   -0.0358   -2.4449 N   0  0  0  0  0  3           0  0  0
   -2.7444   -0.0197    2.3454 N   0  0  0  0  0  3           0  0  0
    0.0000    0.0000    0.0000 C   0  0  0  0  0  4           0  0  0
   -2.0196   -0.0220    1.1463 C   0  0  0  0  0  4           0  0  0
   -2.0246   -0.0454   -1.1607 C   0  0  0  0  0  4           0  0  0
   -0.6454   -0.0124   -1.2270 C   0  0  0  0  0  4           0  0  0
   -2.3124    0.0025    3.6740 C   0  0  0  0  0  4           0  0  0
   -0.6246    0.6908    5.3120 C   0  0  0  0  0  4           0  0  0
   -1.1000    0.6386    3.9924 C   0  0  0  0  0  4           0  0  0
   -3.0444   -0.5876    4.7141 C   0  0  0  0  0  4           0  0  0
   -1.3689    0.0808    6.3262 C   0  0  0  0  0  4           0  0  0
   -2.5747   -0.5509    6.0284 C   0  0  0  0  0  4           0  0  0
    0.6787    1.3590    5.6232 C   0  0  0  0  0  4           0  0  0
    1.9727   -0.0000    1.3019 C   0  0  0  0  0  4           0  0  0
    3.4918    0.0000    1.1538 C   0  0  1  0  0  4           0  0  0
    4.1905   -0.0000    2.5231 C   0  0  0  0  0  4           0  0  0
    3.9750   -1.1899    0.3093 C   0  0  0  0  0  4           0  0  0
    5.7112   -0.0032    2.3781 C   0  0  0  0  0  4           0  0  0
    5.4955   -1.1949    0.1627 C   0  0  0  0  0  4           0  0  0
    6.1931   -1.1680    1.5192 C   0  0  0  0  0  4           0  0  0
  1  6  2  0     0  0
  2  8  1  0     0  0
  2 19  1  0     0  0
  3 18  1  0     0  0
  4  8  2  0     0  0
  4  9  1  0     0  0
  5  9  2  0     0  0
  5 10  1  0     0  0
  6 11  1  0     0  0
  7  9  1  0     0  0
  7 12  1  0     0  0
  8 11  1  0     0  0
 10 11  2  0     0  0
 12 14  2  0     0  0
 12 15  1  0     0  0
 13 14  1  0     0  0
 13 16  2  0     0  0
 13 18  1  0     0  0
 15 17  2  0     0  0
 16 17  1  0     0  0
 19 20  1  0     0  0
 20 21  1  0     0  0
 20 22  1  0     0  0
 21 23  1  0     0  0
 22 24  1  0     0  0
 23 25  1  0     0  0
 24 25  1  0     0  0
M  END
> <Compound >
21

> <standard_type>
pIC50

> <# Confs.>
25

> <canonical_smiles>
O=NC(C(OCC1CCCCC1)=N2)=CN=C2NC3=CC(CO)=CC=C3

> <standard_relation>
=

> <predicted_activity_value>
6.57218942732401

> <actual_activity_value>
7.346787486224656

> <Publication ID>
nan

> <standard_units>
nM

> hash
1830935704564264604

$$$$
18_
XXILIB    08252103453D 0   0.00000     0.00000

 33 36  0     1  0            999 V2000
    1.7690   -2.8989    5.5336 S   0  0  0  0  0  2           0  0  0
    5.3945   -0.0769    4.4357 S   0  0  1  0  0  6           0  0  0
    5.1194    1.0589    5.2954 O   0  0  0  0  0  2           0  0  0
    6.6999   -0.2355    3.8239 O   0  0  0  0  0  2           0  0  0
   -4.5864    0.5616   -1.1038 O   0  0  0  0  0  2           0  0  0
   -2.7479   -0.0080    2.3161 O   0  0  0  0  0  2           0  0  0
    3.5753   -3.7098    7.1877 N   0  0  0  0  0  3           0  0  0
   -0.6717   -0.0000    1.1780 N   0  0  0  0  0  3           0  0  0
   -0.6196   -0.0005   -1.2027 N   0  0  0  0  0  3           0  0  0
    4.9721   -1.5178    5.2495 N   0  0  0  0  0  3           0  0  0
   -4.1144   -0.0125   -0.1153 N   0  0  0  0  0  3           0  0  0
    1.4049    0.0000   -0.0000 N   0  0  0  0  0  3           0  0  0
    3.2184   -2.6872    6.4392 C   0  0  0  0  0  4           0  0  0
    1.6044   -4.4728    6.1898 C   0  0  0  0  0  4           0  0  0
    4.1936   -0.0600    3.1436 C   0  0  0  0  0  4           0  0  0
   -2.0265    0.0007    1.1336 C   0  0  0  0  0  4           0  0  0
    0.0000    0.0000    0.0000 C   0  0  0  0  0  4           0  0  0
    2.6544   -4.7285    7.0447 C   0  0  0  0  0  4           0  0  0
   -1.9708    0.0020   -1.2008 C   0  0  0  0  0  4           0  0  0
   -2.7402    0.0099   -0.0534 C   0  0  0  0  0  4           0  0  0
    2.3166    0.0000    1.0584 C   0  0  0  0  0  4           0  0  0
    2.9664    0.5669    3.3402 C   0  0  0  0  0  4           0  0  0
    4.5056   -0.6476    1.9204 C   0  0  0  0  0  4           0  0  0
    2.0331    0.5918    2.2998 C   0  0  0  0  0  4           0  0  0
    3.5668   -0.6176    0.8869 C   0  0  0  0  0  4           0  0  0
   -1.9401   -0.0171    3.4929 C   0  0  0  0  0  4           0  0  0
    3.9865   -1.4202    6.3426 C   0  0  0  0  0  4           0  0  0
   -2.8339   -0.0262    4.7318 C   0  0  2  0  0  4           0  0  0
   -1.9801   -0.0360    6.0071 C   0  0  0  0  0  4           0  0  0
   -3.8040   -1.2195    4.7162 C   0  0  0  0  0  4           0  0  0
   -2.8425   -0.0841    7.2658 C   0  0  0  0  0  4           0  0  0
   -4.6605   -1.2684    5.9799 C   0  0  0  0  0  4           0  0  0
   -3.8051   -1.2666    7.2422 C   0  0  0  0  0  4           0  0  0
  1 13  1  0     0  0
  1 14  1  0     0  0
  2  3  2  0     0  0
  2  4  2  0     0  0
  2 10  1  0     0  0
  2 15  1  0     0  0
  5 11  2  0     0  0
  6 16  1  0     0  0
  6 26  1  0     0  0
  7 13  2  0     0  0
  7 18  1  0     0  0
  8 16  2  0     0  0
  8 17  1  0     0  0
  9 17  2  0     0  0
  9 19  1  0     0  0
 10 27  1  0     0  0
 11 20  1  0     0  0
 12 17  1  0     0  0
 12 21  1  0     0  0
 13 27  1  0     0  0
 14 18  2  0     0  0
 15 22  2  0     0  0
 15 23  1  0     0  0
 16 20  1  0     0  0
 19 20  2  0     0  0
 21 24  2  0     0  0
 21 25  1  0     0  0
 22 24  1  0     0  0
 23 25  2  0     0  0
 26 28  1  0     0  0
 28 29  1  0     0  0
 28 30  1  0     0  0
 29 31  1  0     0  0
 30 32  1  0     0  0
 31 33  1  0     0  0
 32 33  1  0     0  0
M  END
> <Compound >
18

> <standard_type>
pIC50

> <# Confs.>
25

> <canonical_smiles>
O=NC(C(OCC1CCCCC1)=N2)=CN=C2NC3=CC=C(S(=O)(NCC4=NC=CS4)=O)C=C3

> <standard_relation>
=

> <predicted_activity_value>
7.29073003902417

> <actual_activity_value>
7.721246399047171

> <Publication ID>
nan

> <standard_units>
nM

> hash
17630994189152216877

$$$$
18_
XXILIB    08252103453D 0   0.00000     0.00000

 33 36  0     1  0            999 V2000
    1.7690   -2.8989    5.5336 S   0  0  0  0  0  2           0  0  0
    5.3945   -0.0769    4.4357 S   0  0  1  0  0  6           0  0  0
    5.1194    1.0589    5.2954 O   0  0  0  0  0  2           0  0  0
    6.6999   -0.2355    3.8239 O   0  0  0  0  0  2           0  0  0
   -4.5864    0.5616   -1.1038 O   0  0  0  0  0  2           0  0  0
   -2.7479   -0.0080    2.3161 O   0  0  0  0  0  2           0  0  0
    3.5753   -3.7098    7.1877 N   0  0  0  0  0  3           0  0  0
   -0.6717   -0.0000    1.1780 N   0  0  0  0  0  3           0  0  0
   -0.6196   -0.0005   -1.2027 N   0  0  0  0  0  3           0  0  0
    4.9721   -1.5178    5.2495 N   0  0  0  0  0  3           0  0  0
   -4.1144   -0.0125   -0.1153 N   0  0  0  0  0  3           0  0  0
    1.4049    0.0000   -0.0000 N   0  0  0  0  0  3           0  0  0
    3.2184   -2.6872    6.4392 C   0  0  0  0  0  4           0  0  0
    1.6044   -4.4728    6.1898 C   0  0  0  0  0  4           0  0  0
    4.1936   -0.0600    3.1436 C   0  0  0  0  0  4           0  0  0
   -2.0265    0.0007    1.1336 C   0  0  0  0  0  4           0  0  0
    0.0000    0.0000    0.0000 C   0  0  0  0  0  4           0  0  0
    2.6544   -4.7285    7.0447 C   0  0  0  0  0  4           0  0  0
   -1.9708    0.0020   -1.2008 C   0  0  0  0  0  4           0  0  0
   -2.7402    0.0099   -0.0534 C   0  0  0  0  0  4           0  0  0
    2.3166    0.0000    1.0584 C   0  0  0  0  0  4           0  0  0
    2.9664    0.5669    3.3402 C   0  0  0  0  0  4           0  0  0
    4.5056   -0.6476    1.9204 C   0  0  0  0  0  4           0  0  0
    2.0331    0.5918    2.2998 C   0  0  0  0  0  4           0  0  0
    3.5668   -0.6176    0.8869 C   0  0  0  0  0  4           0  0  0
   -1.9401   -0.0171    3.4929 C   0  0  0  0  0  4           0  0  0
    3.9865   -1.4202    6.3426 C   0  0  0  0  0  4           0  0  0
   -2.8339   -0.0262    4.7318 C   0  0  2  0  0  4           0  0  0
   -3.7297    1.2198    4.7540 C   0  0  0  0  0  4           0  0  0
   -2.0039   -0.1237    6.0229 C   0  0  0  0  0  4           0  0  0
   -4.6101    1.2623    6.0004 C   0  0  0  0  0  4           0  0  0
   -2.8872   -0.0742    7.2680 C   0  0  0  0  0  4           0  0  0
   -3.7819    1.1606    7.2768 C   0  0  0  0  0  4           0  0  0
  1 13  1  0     0  0
  1 14  1  0     0  0
  2  3  2  0     0  0
  2  4  2  0     0  0
  2 10  1  0     0  0
  2 15  1  0     0  0
  5 11  2  0     0  0
  6 16  1  0     0  0
  6 26  1  0     0  0
  7 13  2  0     0  0
  7 18  1  0     0  0
  8 16  2  0     0  0
  8 17  1  0     0  0
  9 17  2  0     0  0
  9 19  1  0     0  0
 10 27  1  0     0  0
 11 20  1  0     0  0
 12 17  1  0     0  0
 12 21  1  0     0  0
 13 27  1  0     0  0
 14 18  2  0     0  0
 15 22  2  0     0  0
 15 23  1  0     0  0
 16 20  1  0     0  0
 19 20  2  0     0  0
 21 24  2  0     0  0
 21 25  1  0     0  0
 22 24  1  0     0  0
 23 25  2  0     0  0
 26 28  1  0     0  0
 28 29  1  0     0  0
 28 30  1  0     0  0
 29 31  1  0     0  0
 30 32  1  0     0  0
 31 33  1  0     0  0
 32 33  1  0     0  0
M  END
> <Compound >
18

> <standard_type>
pIC50

> <# Confs.>
25

> <canonical_smiles>
O=NC(C(OCC1CCCCC1)=N2)=CN=C2NC3=CC=C(S(=O)(NCC4=NC=CS4)=O)C=C3

> <standard_relation>
=

> <predicted_activity_value>
7.29073003902417

> <actual_activity_value>
7.721246399047171

> <Publication ID>
nan

> <standard_units>
nM

> hash
17630994189152216877

$$$$
18_
XXILIB    08252103453D 0   0.00000     0.00000

 33 36  0     1  0            999 V2000
    1.7690   -2.8989    5.5336 S   0  0  0  0  0  2           0  0  0
    5.3945   -0.0769    4.4357 S   0  0  1  0  0  6           0  0  0
    5.1194    1.0589    5.2954 O   0  0  0  0  0  2           0  0  0
    6.6999   -0.2355    3.8239 O   0  0  0  0  0  2           0  0  0
   -4.5864    0.5616   -1.1038 O   0  0  0  0  0  2           0  0  0
   -2.7479   -0.0080    2.3161 O   0  0  0  0  0  2           0  0  0
    3.5753   -3.7098    7.1877 N   0  0  0  0  0  3           0  0  0
   -0.6717   -0.0000    1.1780 N   0  0  0  0  0  3           0  0  0
   -0.6196   -0.0005   -1.2027 N   0  0  0  0  0  3           0  0  0
    4.9721   -1.5178    5.2495 N   0  0  0  0  0  3           0  0  0
   -4.1144   -0.0125   -0.1153 N   0  0  0  0  0  3           0  0  0
    1.4049    0.0000   -0.0000 N   0  0  0  0  0  3           0  0  0
    3.2184   -2.6872    6.4392 C   0  0  0  0  0  4           0  0  0
    1.6044   -4.4728    6.1898 C   0  0  0  0  0  4           0  0  0
    4.1936   -0.0600    3.1436 C   0  0  0  0  0  4           0  0  0
   -2.0265    0.0007    1.1336 C   0  0  0  0  0  4           0  0  0
    0.0000    0.0000    0.0000 C   0  0  0  0  0  4           0  0  0
    2.6544   -4.7285    7.0447 C   0  0  0  0  0  4           0  0  0
   -1.9708    0.0020   -1.2008 C   0  0  0  0  0  4           0  0  0
   -2.7402    0.0099   -0.0534 C   0  0  0  0  0  4           0  0  0
    2.3166    0.0000    1.0584 C   0  0  0  0  0  4           0  0  0
    2.9664    0.5669    3.3402 C   0  0  0  0  0  4           0  0  0
    4.5056   -0.6476    1.9204 C   0  0  0  0  0  4           0  0  0
    2.0331    0.5918    2.2998 C   0  0  0  0  0  4           0  0  0
    3.5668   -0.6176    0.8869 C   0  0  0  0  0  4           0  0  0
   -1.9401   -0.0171    3.4929 C   0  0  0  0  0  4           0  0  0
    3.9865   -1.4202    6.3426 C   0  0  0  0  0  4           0  0  0
   -2.8339   -0.0262    4.7318 C   0  0  2  0  0  4           0  0  0
   -3.7304   -1.2718    4.7353 C   0  0  0  0  0  4           0  0  0
   -3.6802    1.2547    4.8236 C   0  0  0  0  0  4           0  0  0
   -4.6654   -1.2934    5.9418 C   0  0  0  0  0  4           0  0  0
   -4.6192    1.2268    6.0280 C   0  0  0  0  0  4           0  0  0
   -5.4983   -0.0191    6.0298 C   0  0  0  0  0  4           0  0  0
  1 13  1  0     0  0
  1 14  1  0     0  0
  2  3  2  0     0  0
  2  4  2  0     0  0
  2 10  1  0     0  0
  2 15  1  0     0  0
  5 11  2  0     0  0
  6 16  1  0     0  0
  6 26  1  0     0  0
  7 13  2  0     0  0
  7 18  1  0     0  0
  8 16  2  0     0  0
  8 17  1  0     0  0
  9 17  2  0     0  0
  9 19  1  0     0  0
 10 27  1  0     0  0
 11 20  1  0     0  0
 12 17  1  0     0  0
 12 21  1  0     0  0
 13 27  1  0     0  0
 14 18  2  0     0  0
 15 22  2  0     0  0
 15 23  1  0     0  0
 16 20  1  0     0  0
 19 20  2  0     0  0
 21 24  2  0     0  0
 21 25  1  0     0  0
 22 24  1  0     0  0
 23 25  2  0     0  0
 26 28  1  0     0  0
 28 29  1  0     0  0
 28 30  1  0     0  0
 29 31  1  0     0  0
 30 32  1  0     0  0
 31 33  1  0     0  0
 32 33  1  0     0  0
M  END
> <Compound >
18

> <standard_type>
pIC50

> <# Confs.>
25

> <canonical_smiles>
O=NC(C(OCC1CCCCC1)=N2)=CN=C2NC3=CC=C(S(=O)(NCC4=NC=CS4)=O)C=C3

> <standard_relation>
=

> <predicted_activity_value>
7.29073003902417

> <actual_activity_value>
7.721246399047171

> <Publication ID>
nan

> <standard_units>
nM

> hash
17630994189152216877

$$$$
18_
XXILIB    08252103453D 0   0.00000     0.00000

 33 36  0     1  0            999 V2000
    4.9348   -4.3381    2.8066 S   0  0  0  0  0  2           0  0  0
    5.3965    0.0723    4.4339 S   0  0  1  0  0  6           0  0  0
    4.6677   -0.0263    5.6845 O   0  0  0  0  0  2           0  0  0
    6.2800    1.1954    4.1856 O   0  0  0  0  0  2           0  0  0
   -4.5864    0.5616   -1.1038 O   0  0  0  0  0  2           0  0  0
   -2.7479   -0.0080    2.3161 O   0  0  0  0  0  2           0  0  0
    7.1636   -4.4933    4.0968 N   0  0  0  0  0  3           0  0  0
   -0.6717   -0.0000    1.1780 N   0  0  0  0  0  3           0  0  0
   -0.6196   -0.0005   -1.2027 N   0  0  0  0  0  3           0  0  0
    6.2420   -1.3852    4.1556 N   0  0  0  0  0  3           0  0  0
   -4.1144   -0.0125   -0.1153 N   0  0  0  0  0  3           0  0  0
    1.4049    0.0000    0.0000 N   0  0  0  0  0  3           0  0  0
    6.0531   -3.7931    3.9975 C   0  0  0  0  0  4           0  0  0
    6.0124   -5.6040    2.3929 C   0  0  0  0  0  4           0  0  0
    4.2097    0.0231    3.1297 C   0  0  0  0  0  4           0  0  0
   -2.0265    0.0007    1.1336 C   0  0  0  0  0  4           0  0  0
    0.0000    0.0000    0.0000 C   0  0  0  0  0  4           0  0  0
    7.1401   -5.5261    3.1808 C   0  0  0  0  0  4           0  0  0
   -1.9708    0.0020   -1.2008 C   0  0  0  0  0  4           0  0  0
   -2.7402    0.0099   -0.0534 C   0  0  0  0  0  4           0  0  0
    2.3166   -0.0000    1.0584 C   0  0  0  0  0  4           0  0  0
    2.9720   -0.5798    3.3353 C   0  0  0  0  0  4           0  0  0
    4.5153    0.6253    1.9119 C   0  0  0  0  0  4           0  0  0
    2.0331   -0.5918    2.2998 C   0  0  0  0  0  4           0  0  0
    3.5708    0.6085    0.8835 C   0  0  0  0  0  4           0  0  0
   -1.9401   -0.0171    3.4929 C   0  0  0  0  0  4           0  0  0
    5.7456   -2.6010    4.8274 C   0  0  0  0  0  4           0  0  0
   -2.8339   -0.0262    4.7318 C   0  0  2  0  0  4           0  0  0
   -1.9801   -0.0360    6.0071 C   0  0  0  0  0  4           0  0  0
   -3.8040   -1.2195    4.7162 C   0  0  0  0  0  4           0  0  0
   -2.8425   -0.0841    7.2658 C   0  0  0  0  0  4           0  0  0
   -4.6605   -1.2684    5.9799 C   0  0  0  0  0  4           0  0  0
   -3.8051   -1.2666    7.2422 C   0  0  0  0  0  4           0  0  0
  1 13  1  0     0  0
  1 14  1  0     0  0
  2  3  2  0     0  0
  2  4  2  0     0  0
  2 10  1  0     0  0
  2 15  1  0     0  0
  5 11  2  0     0  0
  6 16  1  0     0  0
  6 26  1  0     0  0
  7 13  2  0     0  0
  7 18  1  0     0  0
  8 16  2  0     0  0
  8 17  1  0     0  0
  9 17  2  0     0  0
  9 19  1  0     0  0
 10 27  1  0     0  0
 11 20  1  0     0  0
 12 17  1  0     0  0
 12 21  1  0     0  0
 13 27  1  0     0  0
 14 18  2  0     0  0
 15 22  2  0     0  0
 15 23  1  0     0  0
 16 20  1  0     0  0
 19 20  2  0     0  0
 21 24  2  0     0  0
 21 25  1  0     0  0
 22 24  1  0     0  0
 23 25  2  0     0  0
 26 28  1  0     0  0
 28 29  1  0     0  0
 28 30  1  0     0  0
 29 31  1  0     0  0
 30 32  1  0     0  0
 31 33  1  0     0  0
 32 33  1  0     0  0
M  END
> <Compound >
18

> <standard_type>
pIC50

> <# Confs.>
25

> <canonical_smiles>
O=NC(C(OCC1CCCCC1)=N2)=CN=C2NC3=CC=C(S(=O)(NCC4=NC=CS4)=O)C=C3

> <standard_relation>
=

> <predicted_activity_value>
7.29073003902417

> <actual_activity_value>
7.721246399047171

> <Publication ID>
nan

> <standard_units>
nM

> hash
17630994189152216877

$$$$
18_
XXILIB    08252103453D 0   0.00000     0.00000

 33 36  0     1  0            999 V2000
    3.6560    4.3915    3.6409 S   0  0  0  0  0  2           0  0  0
    5.3965    0.0723    4.4339 S   0  0  1  0  0  6           0  0  0
    6.7060    0.1949    3.8215 O   0  0  0  0  0  2           0  0  0
    5.1078   -1.0261    5.3360 O   0  0  0  0  0  2           0  0  0
   -4.5864    0.5616   -1.1038 O   0  0  0  0  0  2           0  0  0
   -2.7479   -0.0080    2.3161 O   0  0  0  0  0  2           0  0  0
    4.7222    4.6832    5.9721 N   0  0  0  0  0  3           0  0  0
   -0.6717   -0.0000    1.1780 N   0  0  0  0  0  3           0  0  0
   -0.6196   -0.0005   -1.2027 N   0  0  0  0  0  3           0  0  0
    4.9848    1.5478    5.1889 N   0  0  0  0  0  3           0  0  0
   -4.1144   -0.0125   -0.1153 N   0  0  0  0  0  3           0  0  0
    1.4049    0.0000    0.0000 N   0  0  0  0  0  3           0  0  0
    4.7550    3.9384    4.8870 C   0  0  0  0  0  4           0  0  0
    3.0947    5.6787    4.6222 C   0  0  0  0  0  4           0  0  0
    4.2097    0.0231    3.1297 C   0  0  0  0  0  4           0  0  0
   -2.0265    0.0007    1.1336 C   0  0  0  0  0  4           0  0  0
    0.0000    0.0000    0.0000 C   0  0  0  0  0  4           0  0  0
    3.7745    5.6757    5.8207 C   0  0  0  0  0  4           0  0  0
   -1.9708    0.0020   -1.2008 C   0  0  0  0  0  4           0  0  0
   -2.7402    0.0099   -0.0534 C   0  0  0  0  0  4           0  0  0
    2.3166    0.0000    1.0584 C   0  0  0  0  0  4           0  0  0
    2.9720   -0.5798    3.3353 C   0  0  0  0  0  4           0  0  0
    4.5153    0.6253    1.9119 C   0  0  0  0  0  4           0  0  0
    2.0331   -0.5918    2.2998 C   0  0  0  0  0  4           0  0  0
    3.5708    0.6085    0.8835 C   0  0  0  0  0  4           0  0  0
   -1.9401   -0.0171    3.4929 C   0  0  0  0  0  4           0  0  0
    5.6545    2.7708    4.7076 C   0  0  0  0  0  4           0  0  0
   -2.8339   -0.0262    4.7318 C   0  0  2  0  0  4           0  0  0
   -1.9801   -0.0360    6.0071 C   0  0  0  0  0  4           0  0  0
   -3.8040   -1.2195    4.7162 C   0  0  0  0  0  4           0  0  0
   -2.8425   -0.0841    7.2658 C   0  0  0  0  0  4           0  0  0
   -4.6605   -1.2684    5.9799 C   0  0  0  0  0  4           0  0  0
   -3.8051   -1.2666    7.2422 C   0  0  0  0  0  4           0  0  0
  1 13  1  0     0  0
  1 14  1  0     0  0
  2  3  2  0     0  0
  2  4  2  0     0  0
  2 10  1  0     0  0
  2 15  1  0     0  0
  5 11  2  0     0  0
  6 16  1  0     0  0
  6 26  1  0     0  0
  7 13  2  0     0  0
  7 18  1  0     0  0
  8 16  2  0     0  0
  8 17  1  0     0  0
  9 17  2  0     0  0
  9 19  1  0     0  0
 10 27  1  0     0  0
 11 20  1  0     0  0
 12 17  1  0     0  0
 12 21  1  0     0  0
 13 27  1  0     0  0
 14 18  2  0     0  0
 15 22  2  0     0  0
 15 23  1  0     0  0
 16 20  1  0     0  0
 19 20  2  0     0  0
 21 24  2  0     0  0
 21 25  1  0     0  0
 22 24  1  0     0  0
 23 25  2  0     0  0
 26 28  1  0     0  0
 28 29  1  0     0  0
 28 30  1  0     0  0
 29 31  1  0     0  0
 30 32  1  0     0  0
 31 33  1  0     0  0
 32 33  1  0     0  0
M  END
> <Compound >
18

> <standard_type>
pIC50

> <# Confs.>
25

> <canonical_smiles>
O=NC(C(OCC1CCCCC1)=N2)=CN=C2NC3=CC=C(S(=O)(NCC4=NC=CS4)=O)C=C3

> <standard_relation>
=

> <predicted_activity_value>
7.29073003902417

> <actual_activity_value>
7.721246399047171

> <Publication ID>
nan

> <standard_units>
nM

> hash
17630994189152216877

$$$$
18_
XXILIB    08252103453D 0   0.00000     0.00000

 33 36  0     1  0            999 V2000
    4.9348   -4.3381    2.8066 S   0  0  0  0  0  2           0  0  0
    5.3965    0.0723    4.4339 S   0  0  1  0  0  6           0  0  0
    4.6677   -0.0263    5.6845 O   0  0  0  0  0  2           0  0  0
    6.2800    1.1954    4.1856 O   0  0  0  0  0  2           0  0  0
   -4.5864    0.5616   -1.1038 O   0  0  0  0  0  2           0  0  0
   -2.7479   -0.0080    2.3161 O   0  0  0  0  0  2           0  0  0
    7.1636   -4.4933    4.0968 N   0  0  0  0  0  3           0  0  0
   -0.6717   -0.0000    1.1780 N   0  0  0  0  0  3           0  0  0
   -0.6196   -0.0005   -1.2027 N   0  0  0  0  0  3           0  0  0
    6.2420   -1.3852    4.1556 N   0  0  0  0  0  3           0  0  0
   -4.1144   -0.0125   -0.1153 N   0  0  0  0  0  3           0  0  0
    1.4049    0.0000    0.0000 N   0  0  0  0  0  3           0  0  0
    6.0531   -3.7931    3.9975 C   0  0  0  0  0  4           0  0  0
    6.0124   -5.6040    2.3929 C   0  0  0  0  0  4           0  0  0
    4.2097    0.0231    3.1297 C   0  0  0  0  0  4           0  0  0
   -2.0265    0.0007    1.1336 C   0  0  0  0  0  4           0  0  0
    0.0000    0.0000    0.0000 C   0  0  0  0  0  4           0  0  0
    7.1401   -5.5261    3.1808 C   0  0  0  0  0  4           0  0  0
   -1.9708    0.0020   -1.2008 C   0  0  0  0  0  4           0  0  0
   -2.7402    0.0099   -0.0534 C   0  0  0  0  0  4           0  0  0
    2.3166   -0.0000    1.0584 C   0  0  0  0  0  4           0  0  0
    2.9720   -0.5798    3.3353 C   0  0  0  0  0  4           0  0  0
    4.5153    0.6253    1.9119 C   0  0  0  0  0  4           0  0  0
    2.0331   -0.5918    2.2998 C   0  0  0  0  0  4           0  0  0
    3.5708    0.6085    0.8835 C   0  0  0  0  0  4           0  0  0
   -1.9401   -0.0171    3.4929 C   0  0  0  0  0  4           0  0  0
    5.7456   -2.6010    4.8274 C   0  0  0  0  0  4           0  0  0
   -2.8339   -0.0262    4.7318 C   0  0  2  0  0  4           0  0  0
   -3.7297    1.2198    4.7540 C   0  0  0  0  0  4           0  0  0
   -2.0039   -0.1237    6.0229 C   0  0  0  0  0  4           0  0  0
   -4.6101    1.2623    6.0004 C   0  0  0  0  0  4           0  0  0
   -2.8872   -0.0742    7.2680 C   0  0  0  0  0  4           0  0  0
   -3.7819    1.1606    7.2768 C   0  0  0  0  0  4           0  0  0
  1 13  1  0     0  0
  1 14  1  0     0  0
  2  3  2  0     0  0
  2  4  2  0     0  0
  2 10  1  0     0  0
  2 15  1  0     0  0
  5 11  2  0     0  0
  6 16  1  0     0  0
  6 26  1  0     0  0
  7 13  2  0     0  0
  7 18  1  0     0  0
  8 16  2  0     0  0
  8 17  1  0     0  0
  9 17  2  0     0  0
  9 19  1  0     0  0
 10 27  1  0     0  0
 11 20  1  0     0  0
 12 17  1  0     0  0
 12 21  1  0     0  0
 13 27  1  0     0  0
 14 18  2  0     0  0
 15 22  2  0     0  0
 15 23  1  0     0  0
 16 20  1  0     0  0
 19 20  2  0     0  0
 21 24  2  0     0  0
 21 25  1  0     0  0
 22 24  1  0     0  0
 23 25  2  0     0  0
 26 28  1  0     0  0
 28 29  1  0     0  0
 28 30  1  0     0  0
 29 31  1  0     0  0
 30 32  1  0     0  0
 31 33  1  0     0  0
 32 33  1  0     0  0
M  END
> <Compound >
18

> <standard_type>
pIC50

> <# Confs.>
25

> <canonical_smiles>
O=NC(C(OCC1CCCCC1)=N2)=CN=C2NC3=CC=C(S(=O)(NCC4=NC=CS4)=O)C=C3

> <standard_relation>
=

> <predicted_activity_value>
7.29073003902417

> <actual_activity_value>
7.721246399047171

> <Publication ID>
nan

> <standard_units>
nM

> hash
17630994189152216877

$$$$
18_
XXILIB    08252103453D 0   0.00000     0.00000

 33 36  0     1  0            999 V2000
    3.6560    4.3915    3.6409 S   0  0  0  0  0  2           0  0  0
    5.3965    0.0723    4.4339 S   0  0  1  0  0  6           0  0  0
    6.7060    0.1949    3.8215 O   0  0  0  0  0  2           0  0  0
    5.1078   -1.0261    5.3360 O   0  0  0  0  0  2           0  0  0
   -4.5864    0.5616   -1.1038 O   0  0  0  0  0  2           0  0  0
   -2.7479   -0.0080    2.3161 O   0  0  0  0  0  2           0  0  0
    4.7222    4.6832    5.9721 N   0  0  0  0  0  3           0  0  0
   -0.6717   -0.0000    1.1780 N   0  0  0  0  0  3           0  0  0
   -0.6196   -0.0005   -1.2027 N   0  0  0  0  0  3           0  0  0
    4.9848    1.5478    5.1889 N   0  0  0  0  0  3           0  0  0
   -4.1144   -0.0125   -0.1153 N   0  0  0  0  0  3           0  0  0
    1.4049    0.0000    0.0000 N   0  0  0  0  0  3           0  0  0
    4.7550    3.9384    4.8870 C   0  0  0  0  0  4           0  0  0
    3.0947    5.6787    4.6222 C   0  0  0  0  0  4           0  0  0
    4.2097    0.0231    3.1297 C   0  0  0  0  0  4           0  0  0
   -2.0265    0.0007    1.1336 C   0  0  0  0  0  4           0  0  0
    0.0000    0.0000    0.0000 C   0  0  0  0  0  4           0  0  0
    3.7745    5.6757    5.8207 C   0  0  0  0  0  4           0  0  0
   -1.9708    0.0020   -1.2008 C   0  0  0  0  0  4           0  0  0
   -2.7402    0.0099   -0.0534 C   0  0  0  0  0  4           0  0  0
    2.3166    0.0000    1.0584 C   0  0  0  0  0  4           0  0  0
    2.9720   -0.5798    3.3353 C   0  0  0  0  0  4           0  0  0
    4.5153    0.6253    1.9119 C   0  0  0  0  0  4           0  0  0
    2.0331   -0.5918    2.2998 C   0  0  0  0  0  4           0  0  0
    3.5708    0.6085    0.8835 C   0  0  0  0  0  4           0  0  0
   -1.9401   -0.0171    3.4929 C   0  0  0  0  0  4           0  0  0
    5.6545    2.7708    4.7076 C   0  0  0  0  0  4           0  0  0
   -2.8339   -0.0262    4.7318 C   0  0  2  0  0  4           0  0  0
   -3.7297    1.2198    4.7540 C   0  0  0  0  0  4           0  0  0
   -2.0039   -0.1237    6.0229 C   0  0  0  0  0  4           0  0  0
   -4.6101    1.2623    6.0004 C   0  0  0  0  0  4           0  0  0
   -2.8872   -0.0742    7.2680 C   0  0  0  0  0  4           0  0  0
   -3.7819    1.1606    7.2768 C   0  0  0  0  0  4           0  0  0
  1 13  1  0     0  0
  1 14  1  0     0  0
  2  3  2  0     0  0
  2  4  2  0     0  0
  2 10  1  0     0  0
  2 15  1  0     0  0
  5 11  2  0     0  0
  6 16  1  0     0  0
  6 26  1  0     0  0
  7 13  2  0     0  0
  7 18  1  0     0  0
  8 16  2  0     0  0
  8 17  1  0     0  0
  9 17  2  0     0  0
  9 19  1  0     0  0
 10 27  1  0     0  0
 11 20  1  0     0  0
 12 17  1  0     0  0
 12 21  1  0     0  0
 13 27  1  0     0  0
 14 18  2  0     0  0
 15 22  2  0     0  0
 15 23  1  0     0  0
 16 20  1  0     0  0
 19 20  2  0     0  0
 21 24  2  0     0  0
 21 25  1  0     0  0
 22 24  1  0     0  0
 23 25  2  0     0  0
 26 28  1  0     0  0
 28 29  1  0     0  0
 28 30  1  0     0  0
 29 31  1  0     0  0
 30 32  1  0     0  0
 31 33  1  0     0  0
 32 33  1  0     0  0
M  END
> <Compound >
18

> <standard_type>
pIC50

> <# Confs.>
25

> <canonical_smiles>
O=NC(C(OCC1CCCCC1)=N2)=CN=C2NC3=CC=C(S(=O)(NCC4=NC=CS4)=O)C=C3

> <standard_relation>
=

> <predicted_activity_value>
7.29073003902417

> <actual_activity_value>
7.721246399047171

> <Publication ID>
nan

> <standard_units>
nM

> hash
17630994189152216877

$$$$
18_
XXILIB    08252103453D 0   0.00000     0.00000

 33 36  0     1  0            999 V2000
    6.7916    2.7765    0.9400 S   0  0  0  0  0  2           0  0  0
    5.3945   -0.0769    4.4357 S   0  0  1  0  0  6           0  0  0
    6.2571   -1.2210    4.2081 O   0  0  0  0  0  2           0  0  0
    4.6909    0.0731    5.6951 O   0  0  0  0  0  2           0  0  0
   -4.5864    0.5616   -1.1038 O   0  0  0  0  0  2           0  0  0
   -2.7479   -0.0080    2.3161 O   0  0  0  0  0  2           0  0  0
    8.3196    3.5404    2.8735 N   0  0  0  0  0  3           0  0  0
   -0.6717   -0.0000    1.1780 N   0  0  0  0  0  3           0  0  0
   -0.6196   -0.0005   -1.2027 N   0  0  0  0  0  3           0  0  0
    6.2558    1.3577    4.0941 N   0  0  0  0  0  3           0  0  0
   -4.1144   -0.0125   -0.1153 N   0  0  0  0  0  3           0  0  0
    1.4049   -0.0000    0.0000 N   0  0  0  0  0  3           0  0  0
    7.5859    2.5331    2.4486 C   0  0  0  0  0  4           0  0  0
    7.4786    4.3431    0.8460 C   0  0  0  0  0  4           0  0  0
    4.1936   -0.0600    3.1436 C   0  0  0  0  0  4           0  0  0
   -2.0265    0.0007    1.1336 C   0  0  0  0  0  4           0  0  0
    0.0000    0.0000    0.0000 C   0  0  0  0  0  4           0  0  0
    8.2577    4.5729    1.9590 C   0  0  0  0  0  4           0  0  0
   -1.9708    0.0020   -1.2008 C   0  0  0  0  0  4           0  0  0
   -2.7402    0.0099   -0.0534 C   0  0  0  0  0  4           0  0  0
    2.3166   -0.0000    1.0584 C   0  0  0  0  0  4           0  0  0
    2.9664    0.5669    3.3402 C   0  0  0  0  0  4           0  0  0
    4.5056   -0.6476    1.9204 C   0  0  0  0  0  4           0  0  0
    2.0331    0.5918    2.2998 C   0  0  0  0  0  4           0  0  0
    3.5668   -0.6176    0.8869 C   0  0  0  0  0  4           0  0  0
   -1.9401   -0.0171    3.4929 C   0  0  0  0  0  4           0  0  0
    7.4168    1.2577    3.1897 C   0  0  0  0  0  4           0  0  0
   -2.8339   -0.0262    4.7318 C   0  0  2  0  0  4           0  0  0
   -1.9801   -0.0360    6.0071 C   0  0  0  0  0  4           0  0  0
   -3.8040   -1.2195    4.7162 C   0  0  0  0  0  4           0  0  0
   -2.8425   -0.0841    7.2658 C   0  0  0  0  0  4           0  0  0
   -4.6605   -1.2684    5.9799 C   0  0  0  0  0  4           0  0  0
   -3.8051   -1.2666    7.2422 C   0  0  0  0  0  4           0  0  0
  1 13  1  0     0  0
  1 14  1  0     0  0
  2  3  2  0     0  0
  2  4  2  0     0  0
  2 10  1  0     0  0
  2 15  1  0     0  0
  5 11  2  0     0  0
  6 16  1  0     0  0
  6 26  1  0     0  0
  7 13  2  0     0  0
  7 18  1  0     0  0
  8 16  2  0     0  0
  8 17  1  0     0  0
  9 17  2  0     0  0
  9 19  1  0     0  0
 10 27  1  0     0  0
 11 20  1  0     0  0
 12 17  1  0     0  0
 12 21  1  0     0  0
 13 27  1  0     0  0
 14 18  2  0     0  0
 15 22  2  0     0  0
 15 23  1  0     0  0
 16 20  1  0     0  0
 19 20  2  0     0  0
 21 24  2  0     0  0
 21 25  1  0     0  0
 22 24  1  0     0  0
 23 25  2  0     0  0
 26 28  1  0     0  0
 28 29  1  0     0  0
 28 30  1  0     0  0
 29 31  1  0     0  0
 30 32  1  0     0  0
 31 33  1  0     0  0
 32 33  1  0     0  0
M  END
> <Compound >
18

> <standard_type>
pIC50

> <# Confs.>
25

> <canonical_smiles>
O=NC(C(OCC1CCCCC1)=N2)=CN=C2NC3=CC=C(S(=O)(NCC4=NC=CS4)=O)C=C3

> <standard_relation>
=

> <predicted_activity_value>
7.29073003902417

> <actual_activity_value>
7.721246399047171

> <Publication ID>
nan

> <standard_units>
nM

> hash
17630994189152216877

$$$$
18_
XXILIB    08252103453D 0   0.00000     0.00000

 33 36  0     1  0            999 V2000
    6.7916    2.7765    0.9400 S   0  0  0  0  0  2           0  0  0
    5.3945   -0.0769    4.4357 S   0  0  1  0  0  6           0  0  0
    6.2571   -1.2210    4.2081 O   0  0  0  0  0  2           0  0  0
    4.6909    0.0731    5.6951 O   0  0  0  0  0  2           0  0  0
   -4.5864    0.5616   -1.1038 O   0  0  0  0  0  2           0  0  0
   -2.7479   -0.0080    2.3161 O   0  0  0  0  0  2           0  0  0
    8.3196    3.5404    2.8735 N   0  0  0  0  0  3           0  0  0
   -0.6717   -0.0000    1.1780 N   0  0  0  0  0  3           0  0  0
   -0.6196   -0.0005   -1.2027 N   0  0  0  0  0  3           0  0  0
    6.2558    1.3577    4.0941 N   0  0  0  0  0  3           0  0  0
   -4.1144   -0.0125   -0.1153 N   0  0  0  0  0  3           0  0  0
    1.4049   -0.0000    0.0000 N   0  0  0  0  0  3           0  0  0
    7.5859    2.5331    2.4486 C   0  0  0  0  0  4           0  0  0
    7.4786    4.3431    0.8460 C   0  0  0  0  0  4           0  0  0
    4.1936   -0.0600    3.1436 C   0  0  0  0  0  4           0  0  0
   -2.0265    0.0007    1.1336 C   0  0  0  0  0  4           0  0  0
    0.0000    0.0000    0.0000 C   0  0  0  0  0  4           0  0  0
    8.2577    4.5729    1.9590 C   0  0  0  0  0  4           0  0  0
   -1.9708    0.0020   -1.2008 C   0  0  0  0  0  4           0  0  0
   -2.7402    0.0099   -0.0534 C   0  0  0  0  0  4           0  0  0
    2.3166   -0.0000    1.0584 C   0  0  0  0  0  4           0  0  0
    2.9664    0.5669    3.3402 C   0  0  0  0  0  4           0  0  0
    4.5056   -0.6476    1.9204 C   0  0  0  0  0  4           0  0  0
    2.0331    0.5918    2.2998 C   0  0  0  0  0  4           0  0  0
    3.5668   -0.6176    0.8869 C   0  0  0  0  0  4           0  0  0
   -1.9401   -0.0171    3.4929 C   0  0  0  0  0  4           0  0  0
    7.4168    1.2577    3.1897 C   0  0  0  0  0  4           0  0  0
   -2.8339   -0.0262    4.7318 C   0  0  2  0  0  4           0  0  0
   -3.7297    1.2198    4.7540 C   0  0  0  0  0  4           0  0  0
   -2.0039   -0.1237    6.0229 C   0  0  0  0  0  4           0  0  0
   -4.6101    1.2623    6.0004 C   0  0  0  0  0  4           0  0  0
   -2.8872   -0.0742    7.2680 C   0  0  0  0  0  4           0  0  0
   -3.7819    1.1606    7.2768 C   0  0  0  0  0  4           0  0  0
  1 13  1  0     0  0
  1 14  1  0     0  0
  2  3  2  0     0  0
  2  4  2  0     0  0
  2 10  1  0     0  0
  2 15  1  0     0  0
  5 11  2  0     0  0
  6 16  1  0     0  0
  6 26  1  0     0  0
  7 13  2  0     0  0
  7 18  1  0     0  0
  8 16  2  0     0  0
  8 17  1  0     0  0
  9 17  2  0     0  0
  9 19  1  0     0  0
 10 27  1  0     0  0
 11 20  1  0     0  0
 12 17  1  0     0  0
 12 21  1  0     0  0
 13 27  1  0     0  0
 14 18  2  0     0  0
 15 22  2  0     0  0
 15 23  1  0     0  0
 16 20  1  0     0  0
 19 20  2  0     0  0
 21 24  2  0     0  0
 21 25  1  0     0  0
 22 24  1  0     0  0
 23 25  2  0     0  0
 26 28  1  0     0  0
 28 29  1  0     0  0
 28 30  1  0     0  0
 29 31  1  0     0  0
 30 32  1  0     0  0
 31 33  1  0     0  0
 32 33  1  0     0  0
M  END
> <Compound >
18

> <standard_type>
pIC50

> <# Confs.>
25

> <canonical_smiles>
O=NC(C(OCC1CCCCC1)=N2)=CN=C2NC3=CC=C(S(=O)(NCC4=NC=CS4)=O)C=C3

> <standard_relation>
=

> <predicted_activity_value>
7.29073003902417

> <actual_activity_value>
7.721246399047171

> <Publication ID>
nan

> <standard_units>
nM

> hash
17630994189152216877

$$$$
18_
XXILIB    08252103453D 0   0.00000     0.00000

 33 36  0     1  0            999 V2000
    4.9348   -4.3381    2.8066 S   0  0  0  0  0  2           0  0  0
    5.3965    0.0723    4.4339 S   0  0  1  0  0  6           0  0  0
    4.6677   -0.0263    5.6845 O   0  0  0  0  0  2           0  0  0
    6.2800    1.1954    4.1856 O   0  0  0  0  0  2           0  0  0
   -4.5864    0.5616   -1.1038 O   0  0  0  0  0  2           0  0  0
   -2.7479   -0.0080    2.3161 O   0  0  0  0  0  2           0  0  0
    7.1636   -4.4933    4.0968 N   0  0  0  0  0  3           0  0  0
   -0.6717   -0.0000    1.1780 N   0  0  0  0  0  3           0  0  0
   -0.6196   -0.0005   -1.2027 N   0  0  0  0  0  3           0  0  0
    6.2420   -1.3852    4.1556 N   0  0  0  0  0  3           0  0  0
   -4.1144   -0.0125   -0.1153 N   0  0  0  0  0  3           0  0  0
    1.4049    0.0000    0.0000 N   0  0  0  0  0  3           0  0  0
    6.0531   -3.7931    3.9975 C   0  0  0  0  0  4           0  0  0
    6.0124   -5.6040    2.3929 C   0  0  0  0  0  4           0  0  0
    4.2097    0.0231    3.1297 C   0  0  0  0  0  4           0  0  0
   -2.0265    0.0007    1.1336 C   0  0  0  0  0  4           0  0  0
    0.0000    0.0000    0.0000 C   0  0  0  0  0  4           0  0  0
    7.1401   -5.5261    3.1808 C   0  0  0  0  0  4           0  0  0
   -1.9708    0.0020   -1.2008 C   0  0  0  0  0  4           0  0  0
   -2.7402    0.0099   -0.0534 C   0  0  0  0  0  4           0  0  0
    2.3166   -0.0000    1.0584 C   0  0  0  0  0  4           0  0  0
    2.9720   -0.5798    3.3353 C   0  0  0  0  0  4           0  0  0
    4.5153    0.6253    1.9119 C   0  0  0  0  0  4           0  0  0
    2.0331   -0.5918    2.2998 C   0  0  0  0  0  4           0  0  0
    3.5708    0.6085    0.8835 C   0  0  0  0  0  4           0  0  0
   -1.9401   -0.0171    3.4929 C   0  0  0  0  0  4           0  0  0
    5.7456   -2.6010    4.8274 C   0  0  0  0  0  4           0  0  0
   -2.8339   -0.0262    4.7318 C   0  0  2  0  0  4           0  0  0
   -3.7304   -1.2718    4.7353 C   0  0  0  0  0  4           0  0  0
   -3.6802    1.2547    4.8236 C   0  0  0  0  0  4           0  0  0
   -4.6654   -1.2934    5.9418 C   0  0  0  0  0  4           0  0  0
   -4.6192    1.2268    6.0280 C   0  0  0  0  0  4           0  0  0
   -5.4983   -0.0191    6.0298 C   0  0  0  0  0  4           0  0  0
  1 13  1  0     0  0
  1 14  1  0     0  0
  2  3  2  0     0  0
  2  4  2  0     0  0
  2 10  1  0     0  0
  2 15  1  0     0  0
  5 11  2  0     0  0
  6 16  1  0     0  0
  6 26  1  0     0  0
  7 13  2  0     0  0
  7 18  1  0     0  0
  8 16  2  0     0  0
  8 17  1  0     0  0
  9 17  2  0     0  0
  9 19  1  0     0  0
 10 27  1  0     0  0
 11 20  1  0     0  0
 12 17  1  0     0  0
 12 21  1  0     0  0
 13 27  1  0     0  0
 14 18  2  0     0  0
 15 22  2  0     0  0
 15 23  1  0     0  0
 16 20  1  0     0  0
 19 20  2  0     0  0
 21 24  2  0     0  0
 21 25  1  0     0  0
 22 24  1  0     0  0
 23 25  2  0     0  0
 26 28  1  0     0  0
 28 29  1  0     0  0
 28 30  1  0     0  0
 29 31  1  0     0  0
 30 32  1  0     0  0
 31 33  1  0     0  0
 32 33  1  0     0  0
M  END
> <Compound >
18

> <standard_type>
pIC50

> <# Confs.>
25

> <canonical_smiles>
O=NC(C(OCC1CCCCC1)=N2)=CN=C2NC3=CC=C(S(=O)(NCC4=NC=CS4)=O)C=C3

> <standard_relation>
=

> <predicted_activity_value>
7.29073003902417

> <actual_activity_value>
7.721246399047171

> <Publication ID>
nan

> <standard_units>
nM

> hash
17630994189152216877

$$$$
18_
XXILIB    08252103453D 0   0.00000     0.00000

 33 36  0     1  0            999 V2000
    3.6560    4.3915    3.6409 S   0  0  0  0  0  2           0  0  0
    5.3965    0.0723    4.4339 S   0  0  1  0  0  6           0  0  0
    6.7060    0.1949    3.8215 O   0  0  0  0  0  2           0  0  0
    5.1078   -1.0261    5.3360 O   0  0  0  0  0  2           0  0  0
   -4.5864    0.5616   -1.1038 O   0  0  0  0  0  2           0  0  0
   -2.7479   -0.0080    2.3161 O   0  0  0  0  0  2           0  0  0
    4.7222    4.6832    5.9721 N   0  0  0  0  0  3           0  0  0
   -0.6717   -0.0000    1.1780 N   0  0  0  0  0  3           0  0  0
   -0.6196   -0.0005   -1.2027 N   0  0  0  0  0  3           0  0  0
    4.9848    1.5478    5.1889 N   0  0  0  0  0  3           0  0  0
   -4.1144   -0.0125   -0.1153 N   0  0  0  0  0  3           0  0  0
    1.4049    0.0000    0.0000 N   0  0  0  0  0  3           0  0  0
    4.7550    3.9384    4.8870 C   0  0  0  0  0  4           0  0  0
    3.0947    5.6787    4.6222 C   0  0  0  0  0  4           0  0  0
    4.2097    0.0231    3.1297 C   0  0  0  0  0  4           0  0  0
   -2.0265    0.0007    1.1336 C   0  0  0  0  0  4           0  0  0
    0.0000    0.0000    0.0000 C   0  0  0  0  0  4           0  0  0
    3.7745    5.6757    5.8207 C   0  0  0  0  0  4           0  0  0
   -1.9708    0.0020   -1.2008 C   0  0  0  0  0  4           0  0  0
   -2.7402    0.0099   -0.0534 C   0  0  0  0  0  4           0  0  0
    2.3166    0.0000    1.0584 C   0  0  0  0  0  4           0  0  0
    2.9720   -0.5798    3.3353 C   0  0  0  0  0  4           0  0  0
    4.5153    0.6253    1.9119 C   0  0  0  0  0  4           0  0  0
    2.0331   -0.5918    2.2998 C   0  0  0  0  0  4           0  0  0
    3.5708    0.6085    0.8835 C   0  0  0  0  0  4           0  0  0
   -1.9401   -0.0171    3.4929 C   0  0  0  0  0  4           0  0  0
    5.6545    2.7708    4.7076 C   0  0  0  0  0  4           0  0  0
   -2.8339   -0.0262    4.7318 C   0  0  2  0  0  4           0  0  0
   -3.7304   -1.2718    4.7353 C   0  0  0  0  0  4           0  0  0
   -3.6802    1.2547    4.8236 C   0  0  0  0  0  4           0  0  0
   -4.6654   -1.2934    5.9418 C   0  0  0  0  0  4           0  0  0
   -4.6192    1.2268    6.0280 C   0  0  0  0  0  4           0  0  0
   -5.4983   -0.0191    6.0298 C   0  0  0  0  0  4           0  0  0
  1 13  1  0     0  0
  1 14  1  0     0  0
  2  3  2  0     0  0
  2  4  2  0     0  0
  2 10  1  0     0  0
  2 15  1  0     0  0
  5 11  2  0     0  0
  6 16  1  0     0  0
  6 26  1  0     0  0
  7 13  2  0     0  0
  7 18  1  0     0  0
  8 16  2  0     0  0
  8 17  1  0     0  0
  9 17  2  0     0  0
  9 19  1  0     0  0
 10 27  1  0     0  0
 11 20  1  0     0  0
 12 17  1  0     0  0
 12 21  1  0     0  0
 13 27  1  0     0  0
 14 18  2  0     0  0
 15 22  2  0     0  0
 15 23  1  0     0  0
 16 20  1  0     0  0
 19 20  2  0     0  0
 21 24  2  0     0  0
 21 25  1  0     0  0
 22 24  1  0     0  0
 23 25  2  0     0  0
 26 28  1  0     0  0
 28 29  1  0     0  0
 28 30  1  0     0  0
 29 31  1  0     0  0
 30 32  1  0     0  0
 31 33  1  0     0  0
 32 33  1  0     0  0
M  END
> <Compound >
18

> <standard_type>
pIC50

> <# Confs.>
25

> <canonical_smiles>
O=NC(C(OCC1CCCCC1)=N2)=CN=C2NC3=CC=C(S(=O)(NCC4=NC=CS4)=O)C=C3

> <standard_relation>
=

> <predicted_activity_value>
7.29073003902417

> <actual_activity_value>
7.721246399047171

> <Publication ID>
nan

> <standard_units>
nM

> hash
17630994189152216877

$$$$
18_
XXILIB    08252103453D 0   0.00000     0.00000

 33 36  0     1  0            999 V2000
    6.7916    2.7765    0.9400 S   0  0  0  0  0  2           0  0  0
    5.3945   -0.0769    4.4357 S   0  0  1  0  0  6           0  0  0
    6.2571   -1.2210    4.2081 O   0  0  0  0  0  2           0  0  0
    4.6909    0.0731    5.6951 O   0  0  0  0  0  2           0  0  0
   -4.5864    0.5616   -1.1038 O   0  0  0  0  0  2           0  0  0
   -2.7479   -0.0080    2.3161 O   0  0  0  0  0  2           0  0  0
    8.3196    3.5404    2.8735 N   0  0  0  0  0  3           0  0  0
   -0.6717   -0.0000    1.1780 N   0  0  0  0  0  3           0  0  0
   -0.6196   -0.0005   -1.2027 N   0  0  0  0  0  3           0  0  0
    6.2558    1.3577    4.0941 N   0  0  0  0  0  3           0  0  0
   -4.1144   -0.0125   -0.1153 N   0  0  0  0  0  3           0  0  0
    1.4049   -0.0000    0.0000 N   0  0  0  0  0  3           0  0  0
    7.5859    2.5331    2.4486 C   0  0  0  0  0  4           0  0  0
    7.4786    4.3431    0.8460 C   0  0  0  0  0  4           0  0  0
    4.1936   -0.0600    3.1436 C   0  0  0  0  0  4           0  0  0
   -2.0265    0.0007    1.1336 C   0  0  0  0  0  4           0  0  0
    0.0000    0.0000    0.0000 C   0  0  0  0  0  4           0  0  0
    8.2577    4.5729    1.9590 C   0  0  0  0  0  4           0  0  0
   -1.9708    0.0020   -1.2008 C   0  0  0  0  0  4           0  0  0
   -2.7402    0.0099   -0.0534 C   0  0  0  0  0  4           0  0  0
    2.3166   -0.0000    1.0584 C   0  0  0  0  0  4           0  0  0
    2.9664    0.5669    3.3402 C   0  0  0  0  0  4           0  0  0
    4.5056   -0.6476    1.9204 C   0  0  0  0  0  4           0  0  0
    2.0331    0.5918    2.2998 C   0  0  0  0  0  4           0  0  0
    3.5668   -0.6176    0.8869 C   0  0  0  0  0  4           0  0  0
   -1.9401   -0.0171    3.4929 C   0  0  0  0  0  4           0  0  0
    7.4168    1.2577    3.1897 C   0  0  0  0  0  4           0  0  0
   -2.8339   -0.0262    4.7318 C   0  0  2  0  0  4           0  0  0
   -3.7304   -1.2718    4.7353 C   0  0  0  0  0  4           0  0  0
   -3.6802    1.2547    4.8236 C   0  0  0  0  0  4           0  0  0
   -4.6654   -1.2934    5.9418 C   0  0  0  0  0  4           0  0  0
   -4.6192    1.2268    6.0280 C   0  0  0  0  0  4           0  0  0
   -5.4983   -0.0191    6.0298 C   0  0  0  0  0  4           0  0  0
  1 13  1  0     0  0
  1 14  1  0     0  0
  2  3  2  0     0  0
  2  4  2  0     0  0
  2 10  1  0     0  0
  2 15  1  0     0  0
  5 11  2  0     0  0
  6 16  1  0     0  0
  6 26  1  0     0  0
  7 13  2  0     0  0
  7 18  1  0     0  0
  8 16  2  0     0  0
  8 17  1  0     0  0
  9 17  2  0     0  0
  9 19  1  0     0  0
 10 27  1  0     0  0
 11 20  1  0     0  0
 12 17  1  0     0  0
 12 21  1  0     0  0
 13 27  1  0     0  0
 14 18  2  0     0  0
 15 22  2  0     0  0
 15 23  1  0     0  0
 16 20  1  0     0  0
 19 20  2  0     0  0
 21 24  2  0     0  0
 21 25  1  0     0  0
 22 24  1  0     0  0
 23 25  2  0     0  0
 26 28  1  0     0  0
 28 29  1  0     0  0
 28 30  1  0     0  0
 29 31  1  0     0  0
 30 32  1  0     0  0
 31 33  1  0     0  0
 32 33  1  0     0  0
M  END
> <Compound >
18

> <standard_type>
pIC50

> <# Confs.>
25

> <canonical_smiles>
O=NC(C(OCC1CCCCC1)=N2)=CN=C2NC3=CC=C(S(=O)(NCC4=NC=CS4)=O)C=C3

> <standard_relation>
=

> <predicted_activity_value>
7.29073003902417

> <actual_activity_value>
7.721246399047171

> <Publication ID>
nan

> <standard_units>
nM

> hash
17630994189152216877

$$$$
18_
XXILIB    08252103453D 0   0.00000     0.00000

 33 36  0     1  0            999 V2000
    1.7690   -2.8989    5.5336 S   0  0  0  0  0  2           0  0  0
    5.3945   -0.0769    4.4357 S   0  0  1  0  0  6           0  0  0
    5.1194    1.0589    5.2954 O   0  0  0  0  0  2           0  0  0
    6.6999   -0.2355    3.8239 O   0  0  0  0  0  2           0  0  0
   -4.5864    0.5616   -1.1038 O   0  0  0  0  0  2           0  0  0
   -2.7479   -0.0080    2.3161 O   0  0  0  0  0  2           0  0  0
    3.5753   -3.7098    7.1877 N   0  0  0  0  0  3           0  0  0
   -0.6717   -0.0000    1.1780 N   0  0  0  0  0  3           0  0  0
   -0.6196   -0.0005   -1.2027 N   0  0  0  0  0  3           0  0  0
    4.9721   -1.5178    5.2495 N   0  0  0  0  0  3           0  0  0
   -4.1144   -0.0125   -0.1153 N   0  0  0  0  0  3           0  0  0
    1.4049    0.0000   -0.0000 N   0  0  0  0  0  3           0  0  0
    3.2184   -2.6872    6.4392 C   0  0  0  0  0  4           0  0  0
    1.6044   -4.4728    6.1898 C   0  0  0  0  0  4           0  0  0
    4.1936   -0.0600    3.1436 C   0  0  0  0  0  4           0  0  0
   -2.0265    0.0007    1.1336 C   0  0  0  0  0  4           0  0  0
    0.0000    0.0000    0.0000 C   0  0  0  0  0  4           0  0  0
    2.6544   -4.7285    7.0447 C   0  0  0  0  0  4           0  0  0
   -1.9708    0.0020   -1.2008 C   0  0  0  0  0  4           0  0  0
   -2.7402    0.0099   -0.0534 C   0  0  0  0  0  4           0  0  0
    2.3166    0.0000    1.0584 C   0  0  0  0  0  4           0  0  0
    2.9664    0.5669    3.3402 C   0  0  0  0  0  4           0  0  0
    4.5056   -0.6476    1.9204 C   0  0  0  0  0  4           0  0  0
    2.0331    0.5918    2.2998 C   0  0  0  0  0  4           0  0  0
    3.5668   -0.6176    0.8869 C   0  0  0  0  0  4           0  0  0
   -1.9401   -0.0171    3.4929 C   0  0  0  0  0  4           0  0  0
    3.9865   -1.4202    6.3426 C   0  0  0  0  0  4           0  0  0
   -2.8339   -0.0262    4.7318 C   0  0  2  0  0  4           0  0  0
   -3.7411    1.2127    4.7766 C   0  0  0  0  0  4           0  0  0
   -2.0288   -0.1516    6.0381 C   0  0  0  0  0  4           0  0  0
   -2.9864    2.4919    5.1349 C   0  0  0  0  0  4           0  0  0
   -1.2764    1.1279    6.4005 C   0  0  0  0  0  4           0  0  0
   -2.2076    2.3356    6.4373 C   0  0  0  0  0  4           0  0  0
  1 13  1  0     0  0
  1 14  1  0     0  0
  2  3  2  0     0  0
  2  4  2  0     0  0
  2 10  1  0     0  0
  2 15  1  0     0  0
  5 11  2  0     0  0
  6 16  1  0     0  0
  6 26  1  0     0  0
  7 13  2  0     0  0
  7 18  1  0     0  0
  8 16  2  0     0  0
  8 17  1  0     0  0
  9 17  2  0     0  0
  9 19  1  0     0  0
 10 27  1  0     0  0
 11 20  1  0     0  0
 12 17  1  0     0  0
 12 21  1  0     0  0
 13 27  1  0     0  0
 14 18  2  0     0  0
 15 22  2  0     0  0
 15 23  1  0     0  0
 16 20  1  0     0  0
 19 20  2  0     0  0
 21 24  2  0     0  0
 21 25  1  0     0  0
 22 24  1  0     0  0
 23 25  2  0     0  0
 26 28  1  0     0  0
 28 29  1  0     0  0
 28 30  1  0     0  0
 29 31  1  0     0  0
 30 32  1  0     0  0
 31 33  1  0     0  0
 32 33  1  0     0  0
M  END
> <Compound >
18

> <standard_type>
pIC50

> <# Confs.>
25

> <canonical_smiles>
O=NC(C(OCC1CCCCC1)=N2)=CN=C2NC3=CC=C(S(=O)(NCC4=NC=CS4)=O)C=C3

> <standard_relation>
=

> <predicted_activity_value>
7.29073003902417

> <actual_activity_value>
7.721246399047171

> <Publication ID>
nan

> <standard_units>
nM

> hash
17630994189152216877

$$$$
18_
XXILIB    08252103453D 0   0.00000     0.00000

 33 36  0     1  0            999 V2000
    4.2073   -4.7893    6.8625 S   0  0  0  0  0  2           0  0  0
    5.4106   -0.0027    4.4217 S   0  0  1  0  0  6           0  0  0
    4.7834    0.5962    5.5848 O   0  0  0  0  0  2           0  0  0
    6.6352    0.5542    3.8796 O   0  0  0  0  0  2           0  0  0
   -4.5864    0.5616   -1.1038 O   0  0  0  0  0  2           0  0  0
   -2.7479   -0.0080    2.3161 O   0  0  0  0  0  2           0  0  0
    6.0121   -4.3566    5.0703 N   0  0  0  0  0  3           0  0  0
   -0.6717   -0.0000    1.1780 N   0  0  0  0  0  3           0  0  0
   -0.6196   -0.0005   -1.2027 N   0  0  0  0  0  3           0  0  0
    5.6205   -1.6760    4.6910 N   0  0  0  0  0  3           0  0  0
   -4.1144   -0.0125   -0.1153 N   0  0  0  0  0  3           0  0  0
    1.4049    0.0000    0.0000 N   0  0  0  0  0  3           0  0  0
    5.0752   -3.7665    5.7825 C   0  0  0  0  0  4           0  0  0
    5.1531   -6.1195    6.3418 C   0  0  0  0  0  4           0  0  0
    4.2101   -0.0213    3.1294 C   0  0  0  0  0  4           0  0  0
   -2.0265    0.0007    1.1336 C   0  0  0  0  0  4           0  0  0
    0.0000    0.0000    0.0000 C   0  0  0  0  0  4           0  0  0
    6.0559   -5.6992    5.3895 C   0  0  0  0  0  4           0  0  0
   -1.9708    0.0020   -1.2008 C   0  0  0  0  0  4           0  0  0
   -2.7402    0.0099   -0.0534 C   0  0  0  0  0  4           0  0  0
    2.3166    0.0000    1.0584 C   0  0  0  0  0  4           0  0  0
    2.8528   -0.0075    3.4380 C   0  0  0  0  0  4           0  0  0
    4.6397   -0.0129    1.8048 C   0  0  0  0  0  4           0  0  0
    1.9130    0.0000    2.4033 C   0  0  0  0  0  4           0  0  0
    3.6933   -0.0052    0.7780 C   0  0  0  0  0  4           0  0  0
   -1.9401   -0.0171    3.4929 C   0  0  0  0  0  4           0  0  0
    4.7462   -2.3216    5.6882 C   0  0  0  0  0  4           0  0  0
   -2.8339   -0.0262    4.7318 C   0  0  2  0  0  4           0  0  0
   -1.9801   -0.0360    6.0071 C   0  0  0  0  0  4           0  0  0
   -3.8040   -1.2195    4.7162 C   0  0  0  0  0  4           0  0  0
   -2.8425   -0.0841    7.2658 C   0  0  0  0  0  4           0  0  0
   -4.6605   -1.2684    5.9799 C   0  0  0  0  0  4           0  0  0
   -3.8051   -1.2666    7.2422 C   0  0  0  0  0  4           0  0  0
  1 13  1  0     0  0
  1 14  1  0     0  0
  2  3  2  0     0  0
  2  4  2  0     0  0
  2 10  1  0     0  0
  2 15  1  0     0  0
  5 11  2  0     0  0
  6 16  1  0     0  0
  6 26  1  0     0  0
  7 13  2  0     0  0
  7 18  1  0     0  0
  8 16  2  0     0  0
  8 17  1  0     0  0
  9 17  2  0     0  0
  9 19  1  0     0  0
 10 27  1  0     0  0
 11 20  1  0     0  0
 12 17  1  0     0  0
 12 21  1  0     0  0
 13 27  1  0     0  0
 14 18  2  0     0  0
 15 22  2  0     0  0
 15 23  1  0     0  0
 16 20  1  0     0  0
 19 20  2  0     0  0
 21 24  2  0     0  0
 21 25  1  0     0  0
 22 24  1  0     0  0
 23 25  2  0     0  0
 26 28  1  0     0  0
 28 29  1  0     0  0
 28 30  1  0     0  0
 29 31  1  0     0  0
 30 32  1  0     0  0
 31 33  1  0     0  0
 32 33  1  0     0  0
M  END
> <Compound >
18

> <standard_type>
pIC50

> <# Confs.>
25

> <canonical_smiles>
O=NC(C(OCC1CCCCC1)=N2)=CN=C2NC3=CC=C(S(=O)(NCC4=NC=CS4)=O)C=C3

> <standard_relation>
=

> <predicted_activity_value>
7.29073003902417

> <actual_activity_value>
7.721246399047171

> <Publication ID>
nan

> <standard_units>
nM

> hash
17630994189152216877

$$$$
18_
XXILIB    08252103453D 0   0.00000     0.00000

 33 36  0     1  0            999 V2000
    4.2073   -4.7893    6.8625 S   0  0  0  0  0  2           0  0  0
    5.4106   -0.0027    4.4217 S   0  0  1  0  0  6           0  0  0
    4.7834    0.5962    5.5848 O   0  0  0  0  0  2           0  0  0
    6.6352    0.5542    3.8796 O   0  0  0  0  0  2           0  0  0
   -4.5864    0.5616   -1.1038 O   0  0  0  0  0  2           0  0  0
   -2.7479   -0.0080    2.3161 O   0  0  0  0  0  2           0  0  0
    6.0121   -4.3566    5.0703 N   0  0  0  0  0  3           0  0  0
   -0.6717   -0.0000    1.1780 N   0  0  0  0  0  3           0  0  0
   -0.6196   -0.0005   -1.2027 N   0  0  0  0  0  3           0  0  0
    5.6205   -1.6760    4.6910 N   0  0  0  0  0  3           0  0  0
   -4.1144   -0.0125   -0.1153 N   0  0  0  0  0  3           0  0  0
    1.4049    0.0000    0.0000 N   0  0  0  0  0  3           0  0  0
    5.0752   -3.7665    5.7825 C   0  0  0  0  0  4           0  0  0
    5.1531   -6.1195    6.3418 C   0  0  0  0  0  4           0  0  0
    4.2101   -0.0213    3.1294 C   0  0  0  0  0  4           0  0  0
   -2.0265    0.0007    1.1336 C   0  0  0  0  0  4           0  0  0
    0.0000    0.0000    0.0000 C   0  0  0  0  0  4           0  0  0
    6.0559   -5.6992    5.3895 C   0  0  0  0  0  4           0  0  0
   -1.9708    0.0020   -1.2008 C   0  0  0  0  0  4           0  0  0
   -2.7402    0.0099   -0.0534 C   0  0  0  0  0  4           0  0  0
    2.3166    0.0000    1.0584 C   0  0  0  0  0  4           0  0  0
    2.8528   -0.0075    3.4380 C   0  0  0  0  0  4           0  0  0
    4.6397   -0.0129    1.8048 C   0  0  0  0  0  4           0  0  0
    1.9130    0.0000    2.4033 C   0  0  0  0  0  4           0  0  0
    3.6933   -0.0052    0.7780 C   0  0  0  0  0  4           0  0  0
   -1.9401   -0.0171    3.4929 C   0  0  0  0  0  4           0  0  0
    4.7462   -2.3216    5.6882 C   0  0  0  0  0  4           0  0  0
   -2.8339   -0.0262    4.7318 C   0  0  2  0  0  4           0  0  0
   -3.7297    1.2198    4.7540 C   0  0  0  0  0  4           0  0  0
   -2.0039   -0.1237    6.0229 C   0  0  0  0  0  4           0  0  0
   -4.6101    1.2623    6.0004 C   0  0  0  0  0  4           0  0  0
   -2.8872   -0.0742    7.2680 C   0  0  0  0  0  4           0  0  0
   -3.7819    1.1606    7.2768 C   0  0  0  0  0  4           0  0  0
  1 13  1  0     0  0
  1 14  1  0     0  0
  2  3  2  0     0  0
  2  4  2  0     0  0
  2 10  1  0     0  0
  2 15  1  0     0  0
  5 11  2  0     0  0
  6 16  1  0     0  0
  6 26  1  0     0  0
  7 13  2  0     0  0
  7 18  1  0     0  0
  8 16  2  0     0  0
  8 17  1  0     0  0
  9 17  2  0     0  0
  9 19  1  0     0  0
 10 27  1  0     0  0
 11 20  1  0     0  0
 12 17  1  0     0  0
 12 21  1  0     0  0
 13 27  1  0     0  0
 14 18  2  0     0  0
 15 22  2  0     0  0
 15 23  1  0     0  0
 16 20  1  0     0  0
 19 20  2  0     0  0
 21 24  2  0     0  0
 21 25  1  0     0  0
 22 24  1  0     0  0
 23 25  2  0     0  0
 26 28  1  0     0  0
 28 29  1  0     0  0
 28 30  1  0     0  0
 29 31  1  0     0  0
 30 32  1  0     0  0
 31 33  1  0     0  0
 32 33  1  0     0  0
M  END
> <Compound >
18

> <standard_type>
pIC50

> <# Confs.>
25

> <canonical_smiles>
O=NC(C(OCC1CCCCC1)=N2)=CN=C2NC3=CC=C(S(=O)(NCC4=NC=CS4)=O)C=C3

> <standard_relation>
=

> <predicted_activity_value>
7.29073003902417

> <actual_activity_value>
7.721246399047171

> <Publication ID>
nan

> <standard_units>
nM

> hash
17630994189152216877

$$$$
18_
XXILIB    08252103453D 0   0.00000     0.00000

 33 36  0     1  0            999 V2000
    3.2058   -4.1783    4.2959 S   0  0  0  0  0  2           0  0  0
    5.4106   -0.0027    4.4217 S   0  0  1  0  0  6           0  0  0
    4.7834    0.5962    5.5848 O   0  0  0  0  0  2           0  0  0
    6.6352    0.5542    3.8796 O   0  0  0  0  0  2           0  0  0
   -4.5864    0.5616   -1.1038 O   0  0  0  0  0  2           0  0  0
   -2.7479   -0.0080    2.3161 O   0  0  0  0  0  2           0  0  0
    5.2899   -4.7361    5.7108 N   0  0  0  0  0  3           0  0  0
   -0.6717   -0.0000    1.1780 N   0  0  0  0  0  3           0  0  0
   -0.6196   -0.0005   -1.2027 N   0  0  0  0  0  3           0  0  0
    5.6205   -1.6760    4.6910 N   0  0  0  0  0  3           0  0  0
   -4.1144   -0.0125   -0.1153 N   0  0  0  0  0  3           0  0  0
    1.4049    0.0000    0.0000 N   0  0  0  0  0  3           0  0  0
    4.5235   -3.7414    5.3150 C   0  0  0  0  0  4           0  0  0
    3.6936   -5.8178    4.3902 C   0  0  0  0  0  4           0  0  0
    4.2101   -0.0213    3.1294 C   0  0  0  0  0  4           0  0  0
   -2.0265    0.0007    1.1336 C   0  0  0  0  0  4           0  0  0
    0.0000    0.0000    0.0000 C   0  0  0  0  0  4           0  0  0
    4.8163   -5.9205    5.1825 C   0  0  0  0  0  4           0  0  0
   -1.9708    0.0020   -1.2008 C   0  0  0  0  0  4           0  0  0
   -2.7402    0.0099   -0.0534 C   0  0  0  0  0  4           0  0  0
    2.3166    0.0000    1.0584 C   0  0  0  0  0  4           0  0  0
    2.8528   -0.0075    3.4380 C   0  0  0  0  0  4           0  0  0
    4.6397   -0.0129    1.8048 C   0  0  0  0  0  4           0  0  0
    1.9130    0.0000    2.4033 C   0  0  0  0  0  4           0  0  0
    3.6933   -0.0052    0.7780 C   0  0  0  0  0  4           0  0  0
   -1.9401   -0.0171    3.4929 C   0  0  0  0  0  4           0  0  0
    4.7462   -2.3216    5.6882 C   0  0  0  0  0  4           0  0  0
   -2.8339   -0.0262    4.7318 C   0  0  2  0  0  4           0  0  0
   -1.9801   -0.0360    6.0071 C   0  0  0  0  0  4           0  0  0
   -3.8040   -1.2195    4.7162 C   0  0  0  0  0  4           0  0  0
   -2.8425   -0.0841    7.2658 C   0  0  0  0  0  4           0  0  0
   -4.6605   -1.2684    5.9799 C   0  0  0  0  0  4           0  0  0
   -3.8051   -1.2666    7.2422 C   0  0  0  0  0  4           0  0  0
  1 13  1  0     0  0
  1 14  1  0     0  0
  2  3  2  0     0  0
  2  4  2  0     0  0
  2 10  1  0     0  0
  2 15  1  0     0  0
  5 11  2  0     0  0
  6 16  1  0     0  0
  6 26  1  0     0  0
  7 13  2  0     0  0
  7 18  1  0     0  0
  8 16  2  0     0  0
  8 17  1  0     0  0
  9 17  2  0     0  0
  9 19  1  0     0  0
 10 27  1  0     0  0
 11 20  1  0     0  0
 12 17  1  0     0  0
 12 21  1  0     0  0
 13 27  1  0     0  0
 14 18  2  0     0  0
 15 22  2  0     0  0
 15 23  1  0     0  0
 16 20  1  0     0  0
 19 20  2  0     0  0
 21 24  2  0     0  0
 21 25  1  0     0  0
 22 24  1  0     0  0
 23 25  2  0     0  0
 26 28  1  0     0  0
 28 29  1  0     0  0
 28 30  1  0     0  0
 29 31  1  0     0  0
 30 32  1  0     0  0
 31 33  1  0     0  0
 32 33  1  0     0  0
M  END
> <Compound >
18

> <standard_type>
pIC50

> <# Confs.>
25

> <canonical_smiles>
O=NC(C(OCC1CCCCC1)=N2)=CN=C2NC3=CC=C(S(=O)(NCC4=NC=CS4)=O)C=C3

> <standard_relation>
=

> <predicted_activity_value>
7.29073003902417

> <actual_activity_value>
7.721246399047171

> <Publication ID>
nan

> <standard_units>
nM

> hash
17630994189152216877

$$$$
18_
XXILIB    08252103453D 0   0.00000     0.00000

 33 36  0     1  0            999 V2000
    3.2058   -4.1783    4.2959 S   0  0  0  0  0  2           0  0  0
    5.4106   -0.0027    4.4217 S   0  0  1  0  0  6           0  0  0
    4.7834    0.5962    5.5848 O   0  0  0  0  0  2           0  0  0
    6.6352    0.5542    3.8796 O   0  0  0  0  0  2           0  0  0
   -4.5864    0.5616   -1.1038 O   0  0  0  0  0  2           0  0  0
   -2.7479   -0.0080    2.3161 O   0  0  0  0  0  2           0  0  0
    5.2899   -4.7361    5.7108 N   0  0  0  0  0  3           0  0  0
   -0.6717   -0.0000    1.1780 N   0  0  0  0  0  3           0  0  0
   -0.6196   -0.0005   -1.2027 N   0  0  0  0  0  3           0  0  0
    5.6205   -1.6760    4.6910 N   0  0  0  0  0  3           0  0  0
   -4.1144   -0.0125   -0.1153 N   0  0  0  0  0  3           0  0  0
    1.4049    0.0000    0.0000 N   0  0  0  0  0  3           0  0  0
    4.5235   -3.7414    5.3150 C   0  0  0  0  0  4           0  0  0
    3.6936   -5.8178    4.3902 C   0  0  0  0  0  4           0  0  0
    4.2101   -0.0213    3.1294 C   0  0  0  0  0  4           0  0  0
   -2.0265    0.0007    1.1336 C   0  0  0  0  0  4           0  0  0
    0.0000    0.0000    0.0000 C   0  0  0  0  0  4           0  0  0
    4.8163   -5.9205    5.1825 C   0  0  0  0  0  4           0  0  0
   -1.9708    0.0020   -1.2008 C   0  0  0  0  0  4           0  0  0
   -2.7402    0.0099   -0.0534 C   0  0  0  0  0  4           0  0  0
    2.3166    0.0000    1.0584 C   0  0  0  0  0  4           0  0  0
    2.8528   -0.0075    3.4380 C   0  0  0  0  0  4           0  0  0
    4.6397   -0.0129    1.8048 C   0  0  0  0  0  4           0  0  0
    1.9130    0.0000    2.4033 C   0  0  0  0  0  4           0  0  0
    3.6933   -0.0052    0.7780 C   0  0  0  0  0  4           0  0  0
   -1.9401   -0.0171    3.4929 C   0  0  0  0  0  4           0  0  0
    4.7462   -2.3216    5.6882 C   0  0  0  0  0  4           0  0  0
   -2.8339   -0.0262    4.7318 C   0  0  2  0  0  4           0  0  0
   -3.7297    1.2198    4.7540 C   0  0  0  0  0  4           0  0  0
   -2.0039   -0.1237    6.0229 C   0  0  0  0  0  4           0  0  0
   -4.6101    1.2623    6.0004 C   0  0  0  0  0  4           0  0  0
   -2.8872   -0.0742    7.2680 C   0  0  0  0  0  4           0  0  0
   -3.7819    1.1606    7.2768 C   0  0  0  0  0  4           0  0  0
  1 13  1  0     0  0
  1 14  1  0     0  0
  2  3  2  0     0  0
  2  4  2  0     0  0
  2 10  1  0     0  0
  2 15  1  0     0  0
  5 11  2  0     0  0
  6 16  1  0     0  0
  6 26  1  0     0  0
  7 13  2  0     0  0
  7 18  1  0     0  0
  8 16  2  0     0  0
  8 17  1  0     0  0
  9 17  2  0     0  0
  9 19  1  0     0  0
 10 27  1  0     0  0
 11 20  1  0     0  0
 12 17  1  0     0  0
 12 21  1  0     0  0
 13 27  1  0     0  0
 14 18  2  0     0  0
 15 22  2  0     0  0
 15 23  1  0     0  0
 16 20  1  0     0  0
 19 20  2  0     0  0
 21 24  2  0     0  0
 21 25  1  0     0  0
 22 24  1  0     0  0
 23 25  2  0     0  0
 26 28  1  0     0  0
 28 29  1  0     0  0
 28 30  1  0     0  0
 29 31  1  0     0  0
 30 32  1  0     0  0
 31 33  1  0     0  0
 32 33  1  0     0  0
M  END
> <Compound >
18

> <standard_type>
pIC50

> <# Confs.>
25

> <canonical_smiles>
O=NC(C(OCC1CCCCC1)=N2)=CN=C2NC3=CC=C(S(=O)(NCC4=NC=CS4)=O)C=C3

> <standard_relation>
=

> <predicted_activity_value>
7.29073003902417

> <actual_activity_value>
7.721246399047171

> <Publication ID>
nan

> <standard_units>
nM

> hash
17630994189152216877

$$$$
18_
XXILIB    08252103453D 0   0.00000     0.00000

 33 36  0     1  0            999 V2000
    7.8644    4.8034    3.3271 S   0  0  0  0  0  2           0  0  0
    5.4106   -0.0027    4.4217 S   0  0  1  0  0  6           0  0  0
    6.6253   -0.5924    3.8910 O   0  0  0  0  0  2           0  0  0
    4.7878   -0.5502    5.6116 O   0  0  0  0  0  2           0  0  0
   -4.5864    0.5616   -1.1038 O   0  0  0  0  0  2           0  0  0
   -2.7479   -0.0080    2.3161 O   0  0  0  0  0  2           0  0  0
    5.9505    4.3690    5.0019 N   0  0  0  0  0  3           0  0  0
   -0.6717   -0.0000    1.1780 N   0  0  0  0  0  3           0  0  0
   -0.6196   -0.0005   -1.2027 N   0  0  0  0  0  3           0  0  0
    5.6396    1.6775    4.6249 N   0  0  0  0  0  3           0  0  0
   -4.1144   -0.0125   -0.1153 N   0  0  0  0  0  3           0  0  0
    1.4049    0.0000    0.0000 N   0  0  0  0  0  3           0  0  0
    6.7382    3.7765    4.1290 C   0  0  0  0  0  4           0  0  0
    7.2564    6.1388    4.2114 C   0  0  0  0  0  4           0  0  0
    4.2101   -0.0213    3.1294 C   0  0  0  0  0  4           0  0  0
   -2.0265    0.0007    1.1336 C   0  0  0  0  0  4           0  0  0
    0.0000    0.0000    0.0000 C   0  0  0  0  0  4           0  0  0
    6.2463    5.7168    5.0482 C   0  0  0  0  0  4           0  0  0
   -1.9708    0.0020   -1.2008 C   0  0  0  0  0  4           0  0  0
   -2.7402    0.0099   -0.0534 C   0  0  0  0  0  4           0  0  0
    2.3166    0.0000    1.0584 C   0  0  0  0  0  4           0  0  0
    2.8528   -0.0075    3.4380 C   0  0  0  0  0  4           0  0  0
    4.6397   -0.0129    1.8048 C   0  0  0  0  0  4           0  0  0
    1.9130   -0.0000    2.4033 C   0  0  0  0  0  4           0  0  0
    3.6933   -0.0052    0.7780 C   0  0  0  0  0  4           0  0  0
   -1.9401   -0.0171    3.4929 C   0  0  0  0  0  4           0  0  0
    6.6892    2.3259    3.8163 C   0  0  0  0  0  4           0  0  0
   -2.8339   -0.0262    4.7318 C   0  0  2  0  0  4           0  0  0
   -1.9801   -0.0360    6.0071 C   0  0  0  0  0  4           0  0  0
   -3.8040   -1.2195    4.7162 C   0  0  0  0  0  4           0  0  0
   -2.8425   -0.0841    7.2658 C   0  0  0  0  0  4           0  0  0
   -4.6605   -1.2684    5.9799 C   0  0  0  0  0  4           0  0  0
   -3.8051   -1.2666    7.2422 C   0  0  0  0  0  4           0  0  0
  1 13  1  0     0  0
  1 14  1  0     0  0
  2  3  2  0     0  0
  2  4  2  0     0  0
  2 10  1  0     0  0
  2 15  1  0     0  0
  5 11  2  0     0  0
  6 16  1  0     0  0
  6 26  1  0     0  0
  7 13  2  0     0  0
  7 18  1  0     0  0
  8 16  2  0     0  0
  8 17  1  0     0  0
  9 17  2  0     0  0
  9 19  1  0     0  0
 10 27  1  0     0  0
 11 20  1  0     0  0
 12 17  1  0     0  0
 12 21  1  0     0  0
 13 27  1  0     0  0
 14 18  2  0     0  0
 15 22  2  0     0  0
 15 23  1  0     0  0
 16 20  1  0     0  0
 19 20  2  0     0  0
 21 24  2  0     0  0
 21 25  1  0     0  0
 22 24  1  0     0  0
 23 25  2  0     0  0
 26 28  1  0     0  0
 28 29  1  0     0  0
 28 30  1  0     0  0
 29 31  1  0     0  0
 30 32  1  0     0  0
 31 33  1  0     0  0
 32 33  1  0     0  0
M  END
> <Compound >
18

> <standard_type>
pIC50

> <# Confs.>
25

> <canonical_smiles>
O=NC(C(OCC1CCCCC1)=N2)=CN=C2NC3=CC=C(S(=O)(NCC4=NC=CS4)=O)C=C3

> <standard_relation>
=

> <predicted_activity_value>
7.29073003902417

> <actual_activity_value>
7.721246399047171

> <Publication ID>
nan

> <standard_units>
nM

> hash
17630994189152216877

$$$$
18_
XXILIB    08252103453D 0   0.00000     0.00000

 33 36  0     1  0            999 V2000
    7.8644    4.8034    3.3271 S   0  0  0  0  0  2           0  0  0
    5.4106   -0.0027    4.4217 S   0  0  1  0  0  6           0  0  0
    6.6253   -0.5924    3.8910 O   0  0  0  0  0  2           0  0  0
    4.7878   -0.5502    5.6116 O   0  0  0  0  0  2           0  0  0
   -4.5864    0.5616   -1.1038 O   0  0  0  0  0  2           0  0  0
   -2.7479   -0.0080    2.3161 O   0  0  0  0  0  2           0  0  0
    5.9505    4.3690    5.0019 N   0  0  0  0  0  3           0  0  0
   -0.6717   -0.0000    1.1780 N   0  0  0  0  0  3           0  0  0
   -0.6196   -0.0005   -1.2027 N   0  0  0  0  0  3           0  0  0
    5.6396    1.6775    4.6249 N   0  0  0  0  0  3           0  0  0
   -4.1144   -0.0125   -0.1153 N   0  0  0  0  0  3           0  0  0
    1.4049    0.0000    0.0000 N   0  0  0  0  0  3           0  0  0
    6.7382    3.7765    4.1290 C   0  0  0  0  0  4           0  0  0
    7.2564    6.1388    4.2114 C   0  0  0  0  0  4           0  0  0
    4.2101   -0.0213    3.1294 C   0  0  0  0  0  4           0  0  0
   -2.0265    0.0007    1.1336 C   0  0  0  0  0  4           0  0  0
    0.0000    0.0000    0.0000 C   0  0  0  0  0  4           0  0  0
    6.2463    5.7168    5.0482 C   0  0  0  0  0  4           0  0  0
   -1.9708    0.0020   -1.2008 C   0  0  0  0  0  4           0  0  0
   -2.7402    0.0099   -0.0534 C   0  0  0  0  0  4           0  0  0
    2.3166    0.0000    1.0584 C   0  0  0  0  0  4           0  0  0
    2.8528   -0.0075    3.4380 C   0  0  0  0  0  4           0  0  0
    4.6397   -0.0129    1.8048 C   0  0  0  0  0  4           0  0  0
    1.9130   -0.0000    2.4033 C   0  0  0  0  0  4           0  0  0
    3.6933   -0.0052    0.7780 C   0  0  0  0  0  4           0  0  0
   -1.9401   -0.0171    3.4929 C   0  0  0  0  0  4           0  0  0
    6.6892    2.3259    3.8163 C   0  0  0  0  0  4           0  0  0
   -2.8339   -0.0262    4.7318 C   0  0  2  0  0  4           0  0  0
   -3.7297    1.2198    4.7540 C   0  0  0  0  0  4           0  0  0
   -2.0039   -0.1237    6.0229 C   0  0  0  0  0  4           0  0  0
   -4.6101    1.2623    6.0004 C   0  0  0  0  0  4           0  0  0
   -2.8872   -0.0742    7.2680 C   0  0  0  0  0  4           0  0  0
   -3.7819    1.1606    7.2768 C   0  0  0  0  0  4           0  0  0
  1 13  1  0     0  0
  1 14  1  0     0  0
  2  3  2  0     0  0
  2  4  2  0     0  0
  2 10  1  0     0  0
  2 15  1  0     0  0
  5 11  2  0     0  0
  6 16  1  0     0  0
  6 26  1  0     0  0
  7 13  2  0     0  0
  7 18  1  0     0  0
  8 16  2  0     0  0
  8 17  1  0     0  0
  9 17  2  0     0  0
  9 19  1  0     0  0
 10 27  1  0     0  0
 11 20  1  0     0  0
 12 17  1  0     0  0
 12 21  1  0     0  0
 13 27  1  0     0  0
 14 18  2  0     0  0
 15 22  2  0     0  0
 15 23  1  0     0  0
 16 20  1  0     0  0
 19 20  2  0     0  0
 21 24  2  0     0  0
 21 25  1  0     0  0
 22 24  1  0     0  0
 23 25  2  0     0  0
 26 28  1  0     0  0
 28 29  1  0     0  0
 28 30  1  0     0  0
 29 31  1  0     0  0
 30 32  1  0     0  0
 31 33  1  0     0  0
 32 33  1  0     0  0
M  END
> <Compound >
18

> <standard_type>
pIC50

> <# Confs.>
25

> <canonical_smiles>
O=NC(C(OCC1CCCCC1)=N2)=CN=C2NC3=CC=C(S(=O)(NCC4=NC=CS4)=O)C=C3

> <standard_relation>
=

> <predicted_activity_value>
7.29073003902417

> <actual_activity_value>
7.721246399047171

> <Publication ID>
nan

> <standard_units>
nM

> hash
17630994189152216877

$$$$
18_
XXILIB    08252103453D 0   0.00000     0.00000

 33 36  0     1  0            999 V2000
    4.2073   -4.7893    6.8625 S   0  0  0  0  0  2           0  0  0
    5.4106   -0.0027    4.4217 S   0  0  1  0  0  6           0  0  0
    4.7834    0.5962    5.5848 O   0  0  0  0  0  2           0  0  0
    6.6352    0.5542    3.8796 O   0  0  0  0  0  2           0  0  0
   -4.5864    0.5616   -1.1038 O   0  0  0  0  0  2           0  0  0
   -2.7479   -0.0080    2.3161 O   0  0  0  0  0  2           0  0  0
    6.0121   -4.3566    5.0703 N   0  0  0  0  0  3           0  0  0
   -0.6717   -0.0000    1.1780 N   0  0  0  0  0  3           0  0  0
   -0.6196   -0.0005   -1.2027 N   0  0  0  0  0  3           0  0  0
    5.6205   -1.6760    4.6910 N   0  0  0  0  0  3           0  0  0
   -4.1144   -0.0125   -0.1153 N   0  0  0  0  0  3           0  0  0
    1.4049    0.0000    0.0000 N   0  0  0  0  0  3           0  0  0
    5.0752   -3.7665    5.7825 C   0  0  0  0  0  4           0  0  0
    5.1531   -6.1195    6.3418 C   0  0  0  0  0  4           0  0  0
    4.2101   -0.0213    3.1294 C   0  0  0  0  0  4           0  0  0
   -2.0265    0.0007    1.1336 C   0  0  0  0  0  4           0  0  0
    0.0000    0.0000    0.0000 C   0  0  0  0  0  4           0  0  0
    6.0559   -5.6992    5.3895 C   0  0  0  0  0  4           0  0  0
   -1.9708    0.0020   -1.2008 C   0  0  0  0  0  4           0  0  0
   -2.7402    0.0099   -0.0534 C   0  0  0  0  0  4           0  0  0
    2.3166    0.0000    1.0584 C   0  0  0  0  0  4           0  0  0
    2.8528   -0.0075    3.4380 C   0  0  0  0  0  4           0  0  0
    4.6397   -0.0129    1.8048 C   0  0  0  0  0  4           0  0  0
    1.9130    0.0000    2.4033 C   0  0  0  0  0  4           0  0  0
    3.6933   -0.0052    0.7780 C   0  0  0  0  0  4           0  0  0
   -1.9401   -0.0171    3.4929 C   0  0  0  0  0  4           0  0  0
    4.7462   -2.3216    5.6882 C   0  0  0  0  0  4           0  0  0
   -2.8339   -0.0262    4.7318 C   0  0  2  0  0  4           0  0  0
   -3.7304   -1.2718    4.7353 C   0  0  0  0  0  4           0  0  0
   -3.6802    1.2547    4.8236 C   0  0  0  0  0  4           0  0  0
   -4.6654   -1.2934    5.9418 C   0  0  0  0  0  4           0  0  0
   -4.6192    1.2268    6.0280 C   0  0  0  0  0  4           0  0  0
   -5.4983   -0.0191    6.0298 C   0  0  0  0  0  4           0  0  0
  1 13  1  0     0  0
  1 14  1  0     0  0
  2  3  2  0     0  0
  2  4  2  0     0  0
  2 10  1  0     0  0
  2 15  1  0     0  0
  5 11  2  0     0  0
  6 16  1  0     0  0
  6 26  1  0     0  0
  7 13  2  0     0  0
  7 18  1  0     0  0
  8 16  2  0     0  0
  8 17  1  0     0  0
  9 17  2  0     0  0
  9 19  1  0     0  0
 10 27  1  0     0  0
 11 20  1  0     0  0
 12 17  1  0     0  0
 12 21  1  0     0  0
 13 27  1  0     0  0
 14 18  2  0     0  0
 15 22  2  0     0  0
 15 23  1  0     0  0
 16 20  1  0     0  0
 19 20  2  0     0  0
 21 24  2  0     0  0
 21 25  1  0     0  0
 22 24  1  0     0  0
 23 25  2  0     0  0
 26 28  1  0     0  0
 28 29  1  0     0  0
 28 30  1  0     0  0
 29 31  1  0     0  0
 30 32  1  0     0  0
 31 33  1  0     0  0
 32 33  1  0     0  0
M  END
> <Compound >
18

> <standard_type>
pIC50

> <# Confs.>
25

> <canonical_smiles>
O=NC(C(OCC1CCCCC1)=N2)=CN=C2NC3=CC=C(S(=O)(NCC4=NC=CS4)=O)C=C3

> <standard_relation>
=

> <predicted_activity_value>
7.29073003902417

> <actual_activity_value>
7.721246399047171

> <Publication ID>
nan

> <standard_units>
nM

> hash
17630994189152216877

$$$$
18_
XXILIB    08252103453D 0   0.00000     0.00000

 33 36  0     1  0            999 V2000
    5.3877    4.1385    2.1493 S   0  0  0  0  0  2           0  0  0
    5.4106   -0.0027    4.4217 S   0  0  1  0  0  6           0  0  0
    6.6253   -0.5924    3.8910 O   0  0  0  0  0  2           0  0  0
    4.7878   -0.5502    5.6116 O   0  0  0  0  0  2           0  0  0
   -4.5864    0.5616   -1.1038 O   0  0  0  0  0  2           0  0  0
   -2.7479   -0.0080    2.3161 O   0  0  0  0  0  2           0  0  0
    6.6369    4.7479    4.3229 N   0  0  0  0  0  3           0  0  0
   -0.6717   -0.0000    1.1780 N   0  0  0  0  0  3           0  0  0
   -0.6196   -0.0005   -1.2027 N   0  0  0  0  0  3           0  0  0
    5.6396    1.6775    4.6249 N   0  0  0  0  0  3           0  0  0
   -4.1144   -0.0125   -0.1153 N   0  0  0  0  0  3           0  0  0
    1.4049    0.0000    0.0000 N   0  0  0  0  0  3           0  0  0
    6.3131    3.7363    3.5449 C   0  0  0  0  0  4           0  0  0
    5.4222    5.7861    2.6173 C   0  0  0  0  0  4           0  0  0
    4.2101   -0.0213    3.1294 C   0  0  0  0  0  4           0  0  0
   -2.0265    0.0007    1.1336 C   0  0  0  0  0  4           0  0  0
    0.0000    0.0000    0.0000 C   0  0  0  0  0  4           0  0  0
    6.1280    5.9171    3.7934 C   0  0  0  0  0  4           0  0  0
   -1.9708    0.0020   -1.2008 C   0  0  0  0  0  4           0  0  0
   -2.7402    0.0099   -0.0534 C   0  0  0  0  0  4           0  0  0
    2.3166    0.0000    1.0584 C   0  0  0  0  0  4           0  0  0
    2.8528   -0.0075    3.4380 C   0  0  0  0  0  4           0  0  0
    4.6397   -0.0129    1.8048 C   0  0  0  0  0  4           0  0  0
    1.9130   -0.0000    2.4033 C   0  0  0  0  0  4           0  0  0
    3.6933   -0.0052    0.7780 C   0  0  0  0  0  4           0  0  0
   -1.9401   -0.0171    3.4929 C   0  0  0  0  0  4           0  0  0
    6.6892    2.3259    3.8163 C   0  0  0  0  0  4           0  0  0
   -2.8339   -0.0262    4.7318 C   0  0  2  0  0  4           0  0  0
   -1.9801   -0.0360    6.0071 C   0  0  0  0  0  4           0  0  0
   -3.8040   -1.2195    4.7162 C   0  0  0  0  0  4           0  0  0
   -2.8425   -0.0841    7.2658 C   0  0  0  0  0  4           0  0  0
   -4.6605   -1.2684    5.9799 C   0  0  0  0  0  4           0  0  0
   -3.8051   -1.2666    7.2422 C   0  0  0  0  0  4           0  0  0
  1 13  1  0     0  0
  1 14  1  0     0  0
  2  3  2  0     0  0
  2  4  2  0     0  0
  2 10  1  0     0  0
  2 15  1  0     0  0
  5 11  2  0     0  0
  6 16  1  0     0  0
  6 26  1  0     0  0
  7 13  2  0     0  0
  7 18  1  0     0  0
  8 16  2  0     0  0
  8 17  1  0     0  0
  9 17  2  0     0  0
  9 19  1  0     0  0
 10 27  1  0     0  0
 11 20  1  0     0  0
 12 17  1  0     0  0
 12 21  1  0     0  0
 13 27  1  0     0  0
 14 18  2  0     0  0
 15 22  2  0     0  0
 15 23  1  0     0  0
 16 20  1  0     0  0
 19 20  2  0     0  0
 21 24  2  0     0  0
 21 25  1  0     0  0
 22 24  1  0     0  0
 23 25  2  0     0  0
 26 28  1  0     0  0
 28 29  1  0     0  0
 28 30  1  0     0  0
 29 31  1  0     0  0
 30 32  1  0     0  0
 31 33  1  0     0  0
 32 33  1  0     0  0
M  END
> <Compound >
18

> <standard_type>
pIC50

> <# Confs.>
25

> <canonical_smiles>
O=NC(C(OCC1CCCCC1)=N2)=CN=C2NC3=CC=C(S(=O)(NCC4=NC=CS4)=O)C=C3

> <standard_relation>
=

> <predicted_activity_value>
7.29073003902417

> <actual_activity_value>
7.721246399047171

> <Publication ID>
nan

> <standard_units>
nM

> hash
17630994189152216877

$$$$
18_
XXILIB    08252103453D 0   0.00000     0.00000

 33 36  0     1  0            999 V2000
    5.3877    4.1385    2.1493 S   0  0  0  0  0  2           0  0  0
    5.4106   -0.0027    4.4217 S   0  0  1  0  0  6           0  0  0
    6.6253   -0.5924    3.8910 O   0  0  0  0  0  2           0  0  0
    4.7878   -0.5502    5.6116 O   0  0  0  0  0  2           0  0  0
   -4.5864    0.5616   -1.1038 O   0  0  0  0  0  2           0  0  0
   -2.7479   -0.0080    2.3161 O   0  0  0  0  0  2           0  0  0
    6.6369    4.7479    4.3229 N   0  0  0  0  0  3           0  0  0
   -0.6717   -0.0000    1.1780 N   0  0  0  0  0  3           0  0  0
   -0.6196   -0.0005   -1.2027 N   0  0  0  0  0  3           0  0  0
    5.6396    1.6775    4.6249 N   0  0  0  0  0  3           0  0  0
   -4.1144   -0.0125   -0.1153 N   0  0  0  0  0  3           0  0  0
    1.4049    0.0000    0.0000 N   0  0  0  0  0  3           0  0  0
    6.3131    3.7363    3.5449 C   0  0  0  0  0  4           0  0  0
    5.4222    5.7861    2.6173 C   0  0  0  0  0  4           0  0  0
    4.2101   -0.0213    3.1294 C   0  0  0  0  0  4           0  0  0
   -2.0265    0.0007    1.1336 C   0  0  0  0  0  4           0  0  0
    0.0000    0.0000    0.0000 C   0  0  0  0  0  4           0  0  0
    6.1280    5.9171    3.7934 C   0  0  0  0  0  4           0  0  0
   -1.9708    0.0020   -1.2008 C   0  0  0  0  0  4           0  0  0
   -2.7402    0.0099   -0.0534 C   0  0  0  0  0  4           0  0  0
    2.3166    0.0000    1.0584 C   0  0  0  0  0  4           0  0  0
    2.8528   -0.0075    3.4380 C   0  0  0  0  0  4           0  0  0
    4.6397   -0.0129    1.8048 C   0  0  0  0  0  4           0  0  0
    1.9130   -0.0000    2.4033 C   0  0  0  0  0  4           0  0  0
    3.6933   -0.0052    0.7780 C   0  0  0  0  0  4           0  0  0
   -1.9401   -0.0171    3.4929 C   0  0  0  0  0  4           0  0  0
    6.6892    2.3259    3.8163 C   0  0  0  0  0  4           0  0  0
   -2.8339   -0.0262    4.7318 C   0  0  2  0  0  4           0  0  0
   -3.7297    1.2198    4.7540 C   0  0  0  0  0  4           0  0  0
   -2.0039   -0.1237    6.0229 C   0  0  0  0  0  4           0  0  0
   -4.6101    1.2623    6.0004 C   0  0  0  0  0  4           0  0  0
   -2.8872   -0.0742    7.2680 C   0  0  0  0  0  4           0  0  0
   -3.7819    1.1606    7.2768 C   0  0  0  0  0  4           0  0  0
  1 13  1  0     0  0
  1 14  1  0     0  0
  2  3  2  0     0  0
  2  4  2  0     0  0
  2 10  1  0     0  0
  2 15  1  0     0  0
  5 11  2  0     0  0
  6 16  1  0     0  0
  6 26  1  0     0  0
  7 13  2  0     0  0
  7 18  1  0     0  0
  8 16  2  0     0  0
  8 17  1  0     0  0
  9 17  2  0     0  0
  9 19  1  0     0  0
 10 27  1  0     0  0
 11 20  1  0     0  0
 12 17  1  0     0  0
 12 21  1  0     0  0
 13 27  1  0     0  0
 14 18  2  0     0  0
 15 22  2  0     0  0
 15 23  1  0     0  0
 16 20  1  0     0  0
 19 20  2  0     0  0
 21 24  2  0     0  0
 21 25  1  0     0  0
 22 24  1  0     0  0
 23 25  2  0     0  0
 26 28  1  0     0  0
 28 29  1  0     0  0
 28 30  1  0     0  0
 29 31  1  0     0  0
 30 32  1  0     0  0
 31 33  1  0     0  0
 32 33  1  0     0  0
M  END
> <Compound >
18

> <standard_type>
pIC50

> <# Confs.>
25

> <canonical_smiles>
O=NC(C(OCC1CCCCC1)=N2)=CN=C2NC3=CC=C(S(=O)(NCC4=NC=CS4)=O)C=C3

> <standard_relation>
=

> <predicted_activity_value>
7.29073003902417

> <actual_activity_value>
7.721246399047171

> <Publication ID>
nan

> <standard_units>
nM

> hash
17630994189152216877

$$$$
18_
XXILIB    08252103453D 0   0.00000     0.00000

 33 36  0     1  0            999 V2000
    1.7690   -2.8989    5.5336 S   0  0  0  0  0  2           0  0  0
    5.3945   -0.0769    4.4357 S   0  0  1  0  0  6           0  0  0
    5.1194    1.0589    5.2954 O   0  0  0  0  0  2           0  0  0
    6.6999   -0.2355    3.8239 O   0  0  0  0  0  2           0  0  0
   -4.5864    0.5616   -1.1038 O   0  0  0  0  0  2           0  0  0
   -2.7479   -0.0080    2.3161 O   0  0  0  0  0  2           0  0  0
    3.5753   -3.7098    7.1877 N   0  0  0  0  0  3           0  0  0
   -0.6717    0.0000    1.1780 N   0  0  0  0  0  3           0  0  0
   -0.6196   -0.0005   -1.2027 N   0  0  0  0  0  3           0  0  0
    4.9721   -1.5178    5.2495 N   0  0  0  0  0  3           0  0  0
   -4.1144   -0.0125   -0.1153 N   0  0  0  0  0  3           0  0  0
    1.4049    0.0000   -0.0000 N   0  0  0  0  0  3           0  0  0
    3.2184   -2.6872    6.4392 C   0  0  0  0  0  4           0  0  0
    1.6044   -4.4728    6.1898 C   0  0  0  0  0  4           0  0  0
    4.1936   -0.0600    3.1436 C   0  0  0  0  0  4           0  0  0
   -2.0265    0.0007    1.1336 C   0  0  0  0  0  4           0  0  0
    0.0000    0.0000    0.0000 C   0  0  0  0  0  4           0  0  0
    2.6544   -4.7285    7.0447 C   0  0  0  0  0  4           0  0  0
   -1.9708    0.0020   -1.2008 C   0  0  0  0  0  4           0  0  0
   -2.7402    0.0099   -0.0534 C   0  0  0  0  0  4           0  0  0
    2.3166    0.0000    1.0584 C   0  0  0  0  0  4           0  0  0
    2.9664    0.5669    3.3402 C   0  0  0  0  0  4           0  0  0
    4.5056   -0.6476    1.9204 C   0  0  0  0  0  4           0  0  0
    2.0331    0.5918    2.2998 C   0  0  0  0  0  4           0  0  0
    3.5668   -0.6176    0.8869 C   0  0  0  0  0  4           0  0  0
   -2.0892   -0.6676    3.3971 C   0  0  0  0  0  4           0  0  0
    3.9865   -1.4202    6.3426 C   0  0  0  0  0  4           0  0  0
   -3.1268   -1.2775    4.3379 C   0  0  2  0  0  4           0  0  0
   -2.4345   -1.9913    5.5070 C   0  0  0  0  0  4           0  0  0
   -4.0658   -2.2398    3.5911 C   0  0  0  0  0  4           0  0  0
   -3.4427   -2.6464    6.4477 C   0  0  0  0  0  4           0  0  0
   -5.0687   -2.8984    4.5363 C   0  0  0  0  0  4           0  0  0
   -4.3734   -3.5955    5.7007 C   0  0  0  0  0  4           0  0  0
  1 13  1  0     0  0
  1 14  1  0     0  0
  2  3  2  0     0  0
  2  4  2  0     0  0
  2 10  1  0     0  0
  2 15  1  0     0  0
  5 11  2  0     0  0
  6 16  1  0     0  0
  6 26  1  0     0  0
  7 13  2  0     0  0
  7 18  1  0     0  0
  8 16  2  0     0  0
  8 17  1  0     0  0
  9 17  2  0     0  0
  9 19  1  0     0  0
 10 27  1  0     0  0
 11 20  1  0     0  0
 12 17  1  0     0  0
 12 21  1  0     0  0
 13 27  1  0     0  0
 14 18  2  0     0  0
 15 22  2  0     0  0
 15 23  1  0     0  0
 16 20  1  0     0  0
 19 20  2  0     0  0
 21 24  2  0     0  0
 21 25  1  0     0  0
 22 24  1  0     0  0
 23 25  2  0     0  0
 26 28  1  0     0  0
 28 29  1  0     0  0
 28 30  1  0     0  0
 29 31  1  0     0  0
 30 32  1  0     0  0
 31 33  1  0     0  0
 32 33  1  0     0  0
M  END
> <Compound >
18

> <standard_type>
pIC50

> <# Confs.>
25

> <canonical_smiles>
O=NC(C(OCC1CCCCC1)=N2)=CN=C2NC3=CC=C(S(=O)(NCC4=NC=CS4)=O)C=C3

> <standard_relation>
=

> <predicted_activity_value>
7.29073003902417

> <actual_activity_value>
7.721246399047171

> <Publication ID>
nan

> <standard_units>
nM

> hash
17630994189152216877

$$$$
18_
XXILIB    08252103453D 0   0.00000     0.00000

 33 36  0     1  0            999 V2000
    3.2058   -4.1783    4.2959 S   0  0  0  0  0  2           0  0  0
    5.4106   -0.0027    4.4217 S   0  0  1  0  0  6           0  0  0
    4.7834    0.5962    5.5848 O   0  0  0  0  0  2           0  0  0
    6.6352    0.5542    3.8796 O   0  0  0  0  0  2           0  0  0
   -4.5864    0.5616   -1.1038 O   0  0  0  0  0  2           0  0  0
   -2.7479   -0.0080    2.3161 O   0  0  0  0  0  2           0  0  0
    5.2899   -4.7361    5.7108 N   0  0  0  0  0  3           0  0  0
   -0.6717   -0.0000    1.1780 N   0  0  0  0  0  3           0  0  0
   -0.6196   -0.0005   -1.2027 N   0  0  0  0  0  3           0  0  0
    5.6205   -1.6760    4.6910 N   0  0  0  0  0  3           0  0  0
   -4.1144   -0.0125   -0.1153 N   0  0  0  0  0  3           0  0  0
    1.4049    0.0000    0.0000 N   0  0  0  0  0  3           0  0  0
    4.5235   -3.7414    5.3150 C   0  0  0  0  0  4           0  0  0
    3.6936   -5.8178    4.3902 C   0  0  0  0  0  4           0  0  0
    4.2101   -0.0213    3.1294 C   0  0  0  0  0  4           0  0  0
   -2.0265    0.0007    1.1336 C   0  0  0  0  0  4           0  0  0
    0.0000    0.0000    0.0000 C   0  0  0  0  0  4           0  0  0
    4.8163   -5.9205    5.1825 C   0  0  0  0  0  4           0  0  0
   -1.9708    0.0020   -1.2008 C   0  0  0  0  0  4           0  0  0
   -2.7402    0.0099   -0.0534 C   0  0  0  0  0  4           0  0  0
    2.3166    0.0000    1.0584 C   0  0  0  0  0  4           0  0  0
    2.8528   -0.0075    3.4380 C   0  0  0  0  0  4           0  0  0
    4.6397   -0.0129    1.8048 C   0  0  0  0  0  4           0  0  0
    1.9130    0.0000    2.4033 C   0  0  0  0  0  4           0  0  0
    3.6933   -0.0052    0.7780 C   0  0  0  0  0  4           0  0  0
   -1.9401   -0.0171    3.4929 C   0  0  0  0  0  4           0  0  0
    4.7462   -2.3216    5.6882 C   0  0  0  0  0  4           0  0  0
   -2.8339   -0.0262    4.7318 C   0  0  2  0  0  4           0  0  0
   -3.7304   -1.2718    4.7353 C   0  0  0  0  0  4           0  0  0
   -3.6802    1.2547    4.8236 C   0  0  0  0  0  4           0  0  0
   -4.6654   -1.2934    5.9418 C   0  0  0  0  0  4           0  0  0
   -4.6192    1.2268    6.0280 C   0  0  0  0  0  4           0  0  0
   -5.4983   -0.0191    6.0298 C   0  0  0  0  0  4           0  0  0
  1 13  1  0     0  0
  1 14  1  0     0  0
  2  3  2  0     0  0
  2  4  2  0     0  0
  2 10  1  0     0  0
  2 15  1  0     0  0
  5 11  2  0     0  0
  6 16  1  0     0  0
  6 26  1  0     0  0
  7 13  2  0     0  0
  7 18  1  0     0  0
  8 16  2  0     0  0
  8 17  1  0     0  0
  9 17  2  0     0  0
  9 19  1  0     0  0
 10 27  1  0     0  0
 11 20  1  0     0  0
 12 17  1  0     0  0
 12 21  1  0     0  0
 13 27  1  0     0  0
 14 18  2  0     0  0
 15 22  2  0     0  0
 15 23  1  0     0  0
 16 20  1  0     0  0
 19 20  2  0     0  0
 21 24  2  0     0  0
 21 25  1  0     0  0
 22 24  1  0     0  0
 23 25  2  0     0  0
 26 28  1  0     0  0
 28 29  1  0     0  0
 28 30  1  0     0  0
 29 31  1  0     0  0
 30 32  1  0     0  0
 31 33  1  0     0  0
 32 33  1  0     0  0
M  END
> <Compound >
18

> <standard_type>
pIC50

> <# Confs.>
25

> <canonical_smiles>
O=NC(C(OCC1CCCCC1)=N2)=CN=C2NC3=CC=C(S(=O)(NCC4=NC=CS4)=O)C=C3

> <standard_relation>
=

> <predicted_activity_value>
7.29073003902417

> <actual_activity_value>
7.721246399047171

> <Publication ID>
nan

> <standard_units>
nM

> hash
17630994189152216877

$$$$
18_
XXILIB    08252103453D 0   0.00000     0.00000

 33 36  0     1  0            999 V2000
    3.8968    1.9789    8.4873 S   0  0  0  0  0  2           0  0  0
    5.3965    0.0723    4.4339 S   0  0  1  0  0  6           0  0  0
    6.7060    0.1949    3.8215 O   0  0  0  0  0  2           0  0  0
    5.1078   -1.0261    5.3360 O   0  0  0  0  0  2           0  0  0
   -4.5864    0.5616   -1.1038 O   0  0  0  0  0  2           0  0  0
   -2.7479   -0.0080    2.3161 O   0  0  0  0  0  2           0  0  0
    3.4546    3.8964    6.8187 N   0  0  0  0  0  3           0  0  0
   -0.6717   -0.0000    1.1780 N   0  0  0  0  0  3           0  0  0
   -0.6196   -0.0005   -1.2027 N   0  0  0  0  0  3           0  0  0
    4.9848    1.5478    5.1889 N   0  0  0  0  0  3           0  0  0
   -4.1144   -0.0125   -0.1153 N   0  0  0  0  0  3           0  0  0
    1.4049    0.0000    0.0000 N   0  0  0  0  0  3           0  0  0
    3.6310    2.5943    6.9009 C   0  0  0  0  0  4           0  0  0
    3.7660    3.5688    9.1117 C   0  0  0  0  0  4           0  0  0
    4.2097    0.0231    3.1297 C   0  0  0  0  0  4           0  0  0
   -2.0265    0.0007    1.1336 C   0  0  0  0  0  4           0  0  0
    0.0000    0.0000    0.0000 C   0  0  0  0  0  4           0  0  0
    3.5322    4.4520    8.0802 C   0  0  0  0  0  4           0  0  0
   -1.9708    0.0020   -1.2008 C   0  0  0  0  0  4           0  0  0
   -2.7402    0.0099   -0.0534 C   0  0  0  0  0  4           0  0  0
    2.3166    0.0000    1.0584 C   0  0  0  0  0  4           0  0  0
    2.9720   -0.5798    3.3353 C   0  0  0  0  0  4           0  0  0
    4.5153    0.6253    1.9119 C   0  0  0  0  0  4           0  0  0
    2.0331   -0.5918    2.2998 C   0  0  0  0  0  4           0  0  0
    3.5708    0.6085    0.8835 C   0  0  0  0  0  4           0  0  0
   -1.9401   -0.0171    3.4929 C   0  0  0  0  0  4           0  0  0
    3.6196    1.6788    5.7319 C   0  0  0  0  0  4           0  0  0
   -2.8339   -0.0262    4.7318 C   0  0  2  0  0  4           0  0  0
   -1.9801   -0.0360    6.0071 C   0  0  0  0  0  4           0  0  0
   -3.8040   -1.2195    4.7162 C   0  0  0  0  0  4           0  0  0
   -2.8425   -0.0841    7.2658 C   0  0  0  0  0  4           0  0  0
   -4.6605   -1.2684    5.9799 C   0  0  0  0  0  4           0  0  0
   -3.8051   -1.2666    7.2422 C   0  0  0  0  0  4           0  0  0
  1 13  1  0     0  0
  1 14  1  0     0  0
  2  3  2  0     0  0
  2  4  2  0     0  0
  2 10  1  0     0  0
  2 15  1  0     0  0
  5 11  2  0     0  0
  6 16  1  0     0  0
  6 26  1  0     0  0
  7 13  2  0     0  0
  7 18  1  0     0  0
  8 16  2  0     0  0
  8 17  1  0     0  0
  9 17  2  0     0  0
  9 19  1  0     0  0
 10 27  1  0     0  0
 11 20  1  0     0  0
 12 17  1  0     0  0
 12 21  1  0     0  0
 13 27  1  0     0  0
 14 18  2  0     0  0
 15 22  2  0     0  0
 15 23  1  0     0  0
 16 20  1  0     0  0
 19 20  2  0     0  0
 21 24  2  0     0  0
 21 25  1  0     0  0
 22 24  1  0     0  0
 23 25  2  0     0  0
 26 28  1  0     0  0
 28 29  1  0     0  0
 28 30  1  0     0  0
 29 31  1  0     0  0
 30 32  1  0     0  0
 31 33  1  0     0  0
 32 33  1  0     0  0
M  END
> <Compound >
18

> <standard_type>
pIC50

> <# Confs.>
25

> <canonical_smiles>
O=NC(C(OCC1CCCCC1)=N2)=CN=C2NC3=CC=C(S(=O)(NCC4=NC=CS4)=O)C=C3

> <standard_relation>
=

> <predicted_activity_value>
7.29073003902417

> <actual_activity_value>
7.721246399047171

> <Publication ID>
nan

> <standard_units>
nM

> hash
17630994189152216877

$$$$
30_
XXILIB    08252103453D 0   0.00000     0.00000

 21 23  0     1  0            999 V2000
    1.8846    0.6521   -3.5229 O   0  0  0  0  0  2           0  0  0
    0.0000    0.0000    0.0000 O   0  0  0  0  0  2           0  0  0
    2.0388    0.0000    1.1854 N   0  0  0  0  0  3           0  0  0
    4.0928    0.0578   -0.0009 N   0  0  0  0  0  3           0  0  0
    4.0771    0.0156    2.3475 N   0  0  0  0  0  3           0  0  0
    4.2019    0.0561   -2.3425 N   0  0  0  0  0  3           0  0  0
    1.2932    0.0116   -2.4740 C   0  0  0  0  0  4           0  0  0
    1.0428    0.5280   -4.5824 C   0  0  0  0  0  4           0  0  0
    1.3865    0.0000    0.0000 C   0  0  0  0  0  4           0  0  0
    3.3839    0.0249    1.1480 C   0  0  0  0  0  4           0  0  0
    3.4271    0.0763   -1.1844 C   0  0  0  0  0  4           0  0  0
    2.0315    0.0282   -1.2365 C   0  0  0  0  0  4           0  0  0
    0.0808   -0.5191   -2.8617 C   0  0  0  0  0  4           0  0  0
   -0.0784   -0.1857   -4.2287 C   0  0  0  0  0  4           0  0  0
   -0.5856    0.0000    1.3016 C   0  0  0  0  0  4           0  0  0
   -2.1084   -0.0000    1.1822 C   0  0  2  0  0  4           0  0  0
   -2.6130    1.2390    0.4250 C   0  0  0  0  0  4           0  0  0
   -2.7826   -0.0913    2.5605 C   0  0  0  0  0  4           0  0  0
   -4.1356    1.2411    0.3035 C   0  0  0  0  0  4           0  0  0
   -4.3055   -0.0908    2.4413 C   0  0  0  0  0  4           0  0  0
   -4.8090    1.1236    1.6673 C   0  0  0  0  0  4           0  0  0
  1  7  1  0     0  0
  1  8  1  0     0  0
  2  9  1  0     0  0
  2 15  1  0     0  0
  3  9  2  0     0  0
  3 10  1  0     0  0
  4 10  2  0     0  0
  4 11  1  0     0  0
  5 10  1  0     0  0
  6 11  1  0     0  0
  7 12  1  0     0  0
  7 13  2  0     0  0
  8 14  2  0     0  0
  9 12  1  0     0  0
 11 12  2  0     0  0
 13 14  1  0     0  0
 15 16  1  0     0  0
 16 17  1  0     0  0
 16 18  1  0     0  0
 17 19  1  0     0  0
 18 20  1  0     0  0
 19 21  1  0     0  0
 20 21  1  0     0  0
M  END
> <Compound >
30

> <standard_type>
pIC50

> <# Confs.>
25

> <canonical_smiles>
NC1=NC(N)=C(C2=CC=CO2)C(OCC3CCCCC3)=N1

> <standard_relation>
=

> <predicted_activity_value>
4.53269385993037

> <actual_activity_value>
4.249491605148654

> <Publication ID>
nan

> <standard_units>
nM

> hash
18408777365818835940

$$$$
30_
XXILIB    08252103453D 0   0.00000     0.00000

 21 23  0     1  0            999 V2000
    1.8846    0.6521   -3.5229 O   0  0  0  0  0  2           0  0  0
    0.0000    0.0000    0.0000 O   0  0  0  0  0  2           0  0  0
    2.0388    0.0000    1.1854 N   0  0  0  0  0  3           0  0  0
    4.0928    0.0578   -0.0009 N   0  0  0  0  0  3           0  0  0
    4.0771    0.0156    2.3475 N   0  0  0  0  0  3           0  0  0
    4.2019    0.0561   -2.3425 N   0  0  0  0  0  3           0  0  0
    1.2932    0.0116   -2.4740 C   0  0  0  0  0  4           0  0  0
    1.0428    0.5280   -4.5824 C   0  0  0  0  0  4           0  0  0
    1.3865    0.0000    0.0000 C   0  0  0  0  0  4           0  0  0
    3.3839    0.0249    1.1480 C   0  0  0  0  0  4           0  0  0
    3.4271    0.0763   -1.1844 C   0  0  0  0  0  4           0  0  0
    2.0315    0.0282   -1.2365 C   0  0  0  0  0  4           0  0  0
    0.0808   -0.5191   -2.8617 C   0  0  0  0  0  4           0  0  0
   -0.0784   -0.1857   -4.2287 C   0  0  0  0  0  4           0  0  0
   -0.5856    0.0000    1.3016 C   0  0  0  0  0  4           0  0  0
   -2.1084   -0.0000    1.1822 C   0  0  2  0  0  4           0  0  0
   -2.6130   -1.2390    0.4250 C   0  0  0  0  0  4           0  0  0
   -2.6214    1.2814    0.5056 C   0  0  0  0  0  4           0  0  0
   -4.1357   -1.2419    0.3048 C   0  0  0  0  0  4           0  0  0
   -4.1442    1.2813    0.3856 C   0  0  0  0  0  4           0  0  0
   -4.6513    0.0400   -0.3419 C   0  0  0  0  0  4           0  0  0
  1  7  1  0     0  0
  1  8  1  0     0  0
  2  9  1  0     0  0
  2 15  1  0     0  0
  3  9  2  0     0  0
  3 10  1  0     0  0
  4 10  2  0     0  0
  4 11  1  0     0  0
  5 10  1  0     0  0
  6 11  1  0     0  0
  7 12  1  0     0  0
  7 13  2  0     0  0
  8 14  2  0     0  0
  9 12  1  0     0  0
 11 12  2  0     0  0
 13 14  1  0     0  0
 15 16  1  0     0  0
 16 17  1  0     0  0
 16 18  1  0     0  0
 17 19  1  0     0  0
 18 20  1  0     0  0
 19 21  1  0     0  0
 20 21  1  0     0  0
M  END
> <Compound >
30

> <standard_type>
pIC50

> <# Confs.>
25

> <canonical_smiles>
NC1=NC(N)=C(C2=CC=CO2)C(OCC3CCCCC3)=N1

> <standard_relation>
=

> <predicted_activity_value>
4.53269385993037

> <actual_activity_value>
4.249491605148654

> <Publication ID>
nan

> <standard_units>
nM

> hash
18408777365818835940

$$$$
30_
XXILIB    08252103453D 0   0.00000     0.00000

 21 23  0     1  0            999 V2000
    1.8846    0.6521   -3.5229 O   0  0  0  0  0  2           0  0  0
    0.0000    0.0000    0.0000 O   0  0  0  0  0  2           0  0  0
    2.0388    0.0000    1.1854 N   0  0  0  0  0  3           0  0  0
    4.0928    0.0578   -0.0009 N   0  0  0  0  0  3           0  0  0
    4.0771    0.0156    2.3475 N   0  0  0  0  0  3           0  0  0
    4.2019    0.0561   -2.3425 N   0  0  0  0  0  3           0  0  0
    1.2932    0.0116   -2.4740 C   0  0  0  0  0  4           0  0  0
    1.0428    0.5280   -4.5824 C   0  0  0  0  0  4           0  0  0
    1.3865    0.0000    0.0000 C   0  0  0  0  0  4           0  0  0
    3.3839    0.0249    1.1480 C   0  0  0  0  0  4           0  0  0
    3.4271    0.0763   -1.1844 C   0  0  0  0  0  4           0  0  0
    2.0315    0.0282   -1.2365 C   0  0  0  0  0  4           0  0  0
    0.0808   -0.5191   -2.8617 C   0  0  0  0  0  4           0  0  0
   -0.0784   -0.1857   -4.2287 C   0  0  0  0  0  4           0  0  0
   -0.5856    0.0000    1.3016 C   0  0  0  0  0  4           0  0  0
   -2.1084   -0.0000    1.1822 C   0  0  2  0  0  4           0  0  0
   -2.7809    0.0000    2.5645 C   0  0  0  0  0  4           0  0  0
   -2.6090   -1.1900    0.3479 C   0  0  0  0  0  4           0  0  0
   -4.3039    0.0008    2.4479 C   0  0  0  0  0  4           0  0  0
   -4.1319   -1.1905    0.2288 C   0  0  0  0  0  4           0  0  0
   -4.8036   -1.1636    1.5983 C   0  0  0  0  0  4           0  0  0
  1  7  1  0     0  0
  1  8  1  0     0  0
  2  9  1  0     0  0
  2 15  1  0     0  0
  3  9  2  0     0  0
  3 10  1  0     0  0
  4 10  2  0     0  0
  4 11  1  0     0  0
  5 10  1  0     0  0
  6 11  1  0     0  0
  7 12  1  0     0  0
  7 13  2  0     0  0
  8 14  2  0     0  0
  9 12  1  0     0  0
 11 12  2  0     0  0
 13 14  1  0     0  0
 15 16  1  0     0  0
 16 17  1  0     0  0
 16 18  1  0     0  0
 17 19  1  0     0  0
 18 20  1  0     0  0
 19 21  1  0     0  0
 20 21  1  0     0  0
M  END
> <Compound >
30

> <standard_type>
pIC50

> <# Confs.>
25

> <canonical_smiles>
NC1=NC(N)=C(C2=CC=CO2)C(OCC3CCCCC3)=N1

> <standard_relation>
=

> <predicted_activity_value>
4.53269385993037

> <actual_activity_value>
4.249491605148654

> <Publication ID>
nan

> <standard_units>
nM

> hash
18408777365818835940

$$$$
30_
XXILIB    08252103453D 0   0.00000     0.00000

 21 23  0     1  0            999 V2000
    1.8846    0.6521   -3.5229 O   0  0  0  0  0  2           0  0  0
    0.0000    0.0000    0.0000 O   0  0  0  0  0  2           0  0  0
    2.0388    0.0000    1.1854 N   0  0  0  0  0  3           0  0  0
    4.0928    0.0578   -0.0009 N   0  0  0  0  0  3           0  0  0
    4.0771    0.0156    2.3475 N   0  0  0  0  0  3           0  0  0
    4.2019    0.0561   -2.3425 N   0  0  0  0  0  3           0  0  0
    1.2932    0.0116   -2.4740 C   0  0  0  0  0  4           0  0  0
    1.0428    0.5280   -4.5824 C   0  0  0  0  0  4           0  0  0
    1.3865    0.0000    0.0000 C   0  0  0  0  0  4           0  0  0
    3.3839    0.0249    1.1480 C   0  0  0  0  0  4           0  0  0
    3.4271    0.0763   -1.1844 C   0  0  0  0  0  4           0  0  0
    2.0315    0.0282   -1.2365 C   0  0  0  0  0  4           0  0  0
    0.0808   -0.5191   -2.8617 C   0  0  0  0  0  4           0  0  0
   -0.0784   -0.1857   -4.2287 C   0  0  0  0  0  4           0  0  0
   -0.5856    0.0000    1.3016 C   0  0  0  0  0  4           0  0  0
   -2.1084   -0.0000    1.1822 C   0  0  2  0  0  4           0  0  0
   -2.6404    1.2316    0.4272 C   0  0  0  0  0  4           0  0  0
   -2.7786   -0.1151    2.5594 C   0  0  0  0  0  4           0  0  0
   -2.5435    2.5191    1.2445 C   0  0  0  0  0  4           0  0  0
   -2.6751    1.1700    3.3789 C   0  0  0  0  0  4           0  0  0
   -3.2135    2.3712    2.6073 C   0  0  0  0  0  4           0  0  0
  1  7  1  0     0  0
  1  8  1  0     0  0
  2  9  1  0     0  0
  2 15  1  0     0  0
  3  9  2  0     0  0
  3 10  1  0     0  0
  4 10  2  0     0  0
  4 11  1  0     0  0
  5 10  1  0     0  0
  6 11  1  0     0  0
  7 12  1  0     0  0
  7 13  2  0     0  0
  8 14  2  0     0  0
  9 12  1  0     0  0
 11 12  2  0     0  0
 13 14  1  0     0  0
 15 16  1  0     0  0
 16 17  1  0     0  0
 16 18  1  0     0  0
 17 19  1  0     0  0
 18 20  1  0     0  0
 19 21  1  0     0  0
 20 21  1  0     0  0
M  END
> <Compound >
30

> <standard_type>
pIC50

> <# Confs.>
25

> <canonical_smiles>
NC1=NC(N)=C(C2=CC=CO2)C(OCC3CCCCC3)=N1

> <standard_relation>
=

> <predicted_activity_value>
4.53269385993037

> <actual_activity_value>
4.249491605148654

> <Publication ID>
nan

> <standard_units>
nM

> hash
18408777365818835940

$$$$
30_
XXILIB    08252103453D 0   0.00000     0.00000

 21 23  0     1  0            999 V2000
    0.4287    1.0501   -2.6596 O   0  0  0  0  0  2           0  0  0
    0.0000    0.0000    0.0000 O   0  0  0  0  0  2           0  0  0
    2.0388    0.0000    1.1854 N   0  0  0  0  0  3           0  0  0
    4.0928    0.0578   -0.0009 N   0  0  0  0  0  3           0  0  0
    4.0771    0.0156    2.3475 N   0  0  0  0  0  3           0  0  0
    4.2019    0.0561   -2.3425 N   0  0  0  0  0  3           0  0  0
    1.2932    0.0116   -2.4740 C   0  0  0  0  0  4           0  0  0
   -0.1647    0.8545   -3.8663 C   0  0  0  0  0  4           0  0  0
    1.3865    0.0000    0.0000 C   0  0  0  0  0  4           0  0  0
    3.3839    0.0249    1.1480 C   0  0  0  0  0  4           0  0  0
    3.4271    0.0763   -1.1844 C   0  0  0  0  0  4           0  0  0
    2.0315    0.0282   -1.2365 C   0  0  0  0  0  4           0  0  0
    1.2525   -0.8419   -3.5565 C   0  0  0  0  0  4           0  0  0
    0.3093   -0.2926   -4.4586 C   0  0  0  0  0  4           0  0  0
   -0.5856    0.0000    1.3016 C   0  0  0  0  0  4           0  0  0
   -2.1084   -0.0000    1.1822 C   0  0  2  0  0  4           0  0  0
   -2.6130   -1.2390    0.4250 C   0  0  0  0  0  4           0  0  0
   -2.6214    1.2814    0.5056 C   0  0  0  0  0  4           0  0  0
   -4.1357   -1.2419    0.3048 C   0  0  0  0  0  4           0  0  0
   -4.1442    1.2813    0.3856 C   0  0  0  0  0  4           0  0  0
   -4.6513    0.0400   -0.3419 C   0  0  0  0  0  4           0  0  0
  1  7  1  0     0  0
  1  8  1  0     0  0
  2  9  1  0     0  0
  2 15  1  0     0  0
  3  9  2  0     0  0
  3 10  1  0     0  0
  4 10  2  0     0  0
  4 11  1  0     0  0
  5 10  1  0     0  0
  6 11  1  0     0  0
  7 12  1  0     0  0
  7 13  2  0     0  0
  8 14  2  0     0  0
  9 12  1  0     0  0
 11 12  2  0     0  0
 13 14  1  0     0  0
 15 16  1  0     0  0
 16 17  1  0     0  0
 16 18  1  0     0  0
 17 19  1  0     0  0
 18 20  1  0     0  0
 19 21  1  0     0  0
 20 21  1  0     0  0
M  END
> <Compound >
30

> <standard_type>
pIC50

> <# Confs.>
25

> <canonical_smiles>
NC1=NC(N)=C(C2=CC=CO2)C(OCC3CCCCC3)=N1

> <standard_relation>
=

> <predicted_activity_value>
4.53269385993037

> <actual_activity_value>
4.249491605148654

> <Publication ID>
nan

> <standard_units>
nM

> hash
18408777365818835940

$$$$
30_
XXILIB    08252103453D 0   0.00000     0.00000

 21 23  0     1  0            999 V2000
    0.4287    1.0501   -2.6596 O   0  0  0  0  0  2           0  0  0
    0.0000    0.0000    0.0000 O   0  0  0  0  0  2           0  0  0
    2.0388    0.0000    1.1854 N   0  0  0  0  0  3           0  0  0
    4.0928    0.0578   -0.0009 N   0  0  0  0  0  3           0  0  0
    4.0771    0.0156    2.3475 N   0  0  0  0  0  3           0  0  0
    4.2019    0.0561   -2.3425 N   0  0  0  0  0  3           0  0  0
    1.2932    0.0116   -2.4740 C   0  0  0  0  0  4           0  0  0
   -0.1647    0.8545   -3.8663 C   0  0  0  0  0  4           0  0  0
    1.3865    0.0000    0.0000 C   0  0  0  0  0  4           0  0  0
    3.3839    0.0249    1.1480 C   0  0  0  0  0  4           0  0  0
    3.4271    0.0763   -1.1844 C   0  0  0  0  0  4           0  0  0
    2.0315    0.0282   -1.2365 C   0  0  0  0  0  4           0  0  0
    1.2525   -0.8419   -3.5565 C   0  0  0  0  0  4           0  0  0
    0.3093   -0.2926   -4.4586 C   0  0  0  0  0  4           0  0  0
   -0.5856    0.0000    1.3016 C   0  0  0  0  0  4           0  0  0
   -2.1084   -0.0000    1.1822 C   0  0  2  0  0  4           0  0  0
   -2.6130    1.2390    0.4250 C   0  0  0  0  0  4           0  0  0
   -2.7826   -0.0913    2.5605 C   0  0  0  0  0  4           0  0  0
   -4.1356    1.2411    0.3035 C   0  0  0  0  0  4           0  0  0
   -4.3055   -0.0908    2.4413 C   0  0  0  0  0  4           0  0  0
   -4.8090    1.1236    1.6673 C   0  0  0  0  0  4           0  0  0
  1  7  1  0     0  0
  1  8  1  0     0  0
  2  9  1  0     0  0
  2 15  1  0     0  0
  3  9  2  0     0  0
  3 10  1  0     0  0
  4 10  2  0     0  0
  4 11  1  0     0  0
  5 10  1  0     0  0
  6 11  1  0     0  0
  7 12  1  0     0  0
  7 13  2  0     0  0
  8 14  2  0     0  0
  9 12  1  0     0  0
 11 12  2  0     0  0
 13 14  1  0     0  0
 15 16  1  0     0  0
 16 17  1  0     0  0
 16 18  1  0     0  0
 17 19  1  0     0  0
 18 20  1  0     0  0
 19 21  1  0     0  0
 20 21  1  0     0  0
M  END
> <Compound >
30

> <standard_type>
pIC50

> <# Confs.>
25

> <canonical_smiles>
NC1=NC(N)=C(C2=CC=CO2)C(OCC3CCCCC3)=N1

> <standard_relation>
=

> <predicted_activity_value>
4.53269385993037

> <actual_activity_value>
4.249491605148654

> <Publication ID>
nan

> <standard_units>
nM

> hash
18408777365818835940

$$$$
30_
XXILIB    08252103453D 0   0.00000     0.00000

 21 23  0     1  0            999 V2000
    1.8846    0.6521   -3.5229 O   0  0  0  0  0  2           0  0  0
    0.0000    0.0000    0.0000 O   0  0  0  0  0  2           0  0  0
    2.0388    0.0000    1.1854 N   0  0  0  0  0  3           0  0  0
    4.0928    0.0578   -0.0009 N   0  0  0  0  0  3           0  0  0
    4.0771    0.0156    2.3475 N   0  0  0  0  0  3           0  0  0
    4.2019    0.0561   -2.3425 N   0  0  0  0  0  3           0  0  0
    1.2932    0.0116   -2.4740 C   0  0  0  0  0  4           0  0  0
    1.0428    0.5280   -4.5824 C   0  0  0  0  0  4           0  0  0
    1.3865    0.0000    0.0000 C   0  0  0  0  0  4           0  0  0
    3.3839    0.0249    1.1480 C   0  0  0  0  0  4           0  0  0
    3.4271    0.0763   -1.1844 C   0  0  0  0  0  4           0  0  0
    2.0315    0.0282   -1.2365 C   0  0  0  0  0  4           0  0  0
    0.0808   -0.5191   -2.8617 C   0  0  0  0  0  4           0  0  0
   -0.0784   -0.1857   -4.2287 C   0  0  0  0  0  4           0  0  0
   -0.5856    0.0000    1.3016 C   0  0  0  0  0  4           0  0  0
   -2.1084   -0.0000    1.1822 C   0  0  2  0  0  4           0  0  0
   -2.8072    0.0000    2.5539 C   0  0  0  0  0  4           0  0  0
   -2.6036   -1.1769    0.3284 C   0  0  0  0  0  4           0  0  0
   -2.7029   -1.3428    3.2756 C   0  0  0  0  0  4           0  0  0
   -2.4922   -2.5200    1.0478 C   0  0  0  0  0  4           0  0  0
   -3.1973   -2.4909    2.4007 C   0  0  0  0  0  4           0  0  0
  1  7  1  0     0  0
  1  8  1  0     0  0
  2  9  1  0     0  0
  2 15  1  0     0  0
  3  9  2  0     0  0
  3 10  1  0     0  0
  4 10  2  0     0  0
  4 11  1  0     0  0
  5 10  1  0     0  0
  6 11  1  0     0  0
  7 12  1  0     0  0
  7 13  2  0     0  0
  8 14  2  0     0  0
  9 12  1  0     0  0
 11 12  2  0     0  0
 13 14  1  0     0  0
 15 16  1  0     0  0
 16 17  1  0     0  0
 16 18  1  0     0  0
 17 19  1  0     0  0
 18 20  1  0     0  0
 19 21  1  0     0  0
 20 21  1  0     0  0
M  END
> <Compound >
30

> <standard_type>
pIC50

> <# Confs.>
25

> <canonical_smiles>
NC1=NC(N)=C(C2=CC=CO2)C(OCC3CCCCC3)=N1

> <standard_relation>
=

> <predicted_activity_value>
4.53269385993037

> <actual_activity_value>
4.249491605148654

> <Publication ID>
nan

> <standard_units>
nM

> hash
18408777365818835940

$$$$
30_
XXILIB    08252103453D 0   0.00000     0.00000

 21 23  0     1  0            999 V2000
    0.4287    1.0501   -2.6596 O   0  0  0  0  0  2           0  0  0
    0.0000    0.0000    0.0000 O   0  0  0  0  0  2           0  0  0
    2.0388    0.0000    1.1854 N   0  0  0  0  0  3           0  0  0
    4.0928    0.0578   -0.0009 N   0  0  0  0  0  3           0  0  0
    4.0771    0.0156    2.3475 N   0  0  0  0  0  3           0  0  0
    4.2019    0.0561   -2.3425 N   0  0  0  0  0  3           0  0  0
    1.2932    0.0116   -2.4740 C   0  0  0  0  0  4           0  0  0
   -0.1647    0.8545   -3.8663 C   0  0  0  0  0  4           0  0  0
    1.3865    0.0000    0.0000 C   0  0  0  0  0  4           0  0  0
    3.3839    0.0249    1.1480 C   0  0  0  0  0  4           0  0  0
    3.4271    0.0763   -1.1844 C   0  0  0  0  0  4           0  0  0
    2.0315    0.0282   -1.2365 C   0  0  0  0  0  4           0  0  0
    1.2525   -0.8419   -3.5565 C   0  0  0  0  0  4           0  0  0
    0.3093   -0.2926   -4.4586 C   0  0  0  0  0  4           0  0  0
   -0.5856    0.0000    1.3016 C   0  0  0  0  0  4           0  0  0
   -2.1084   -0.0000    1.1822 C   0  0  2  0  0  4           0  0  0
   -2.7809    0.0000    2.5645 C   0  0  0  0  0  4           0  0  0
   -2.6090   -1.1900    0.3479 C   0  0  0  0  0  4           0  0  0
   -4.3039    0.0008    2.4479 C   0  0  0  0  0  4           0  0  0
   -4.1319   -1.1905    0.2288 C   0  0  0  0  0  4           0  0  0
   -4.8036   -1.1636    1.5983 C   0  0  0  0  0  4           0  0  0
  1  7  1  0     0  0
  1  8  1  0     0  0
  2  9  1  0     0  0
  2 15  1  0     0  0
  3  9  2  0     0  0
  3 10  1  0     0  0
  4 10  2  0     0  0
  4 11  1  0     0  0
  5 10  1  0     0  0
  6 11  1  0     0  0
  7 12  1  0     0  0
  7 13  2  0     0  0
  8 14  2  0     0  0
  9 12  1  0     0  0
 11 12  2  0     0  0
 13 14  1  0     0  0
 15 16  1  0     0  0
 16 17  1  0     0  0
 16 18  1  0     0  0
 17 19  1  0     0  0
 18 20  1  0     0  0
 19 21  1  0     0  0
 20 21  1  0     0  0
M  END
> <Compound >
30

> <standard_type>
pIC50

> <# Confs.>
25

> <canonical_smiles>
NC1=NC(N)=C(C2=CC=CO2)C(OCC3CCCCC3)=N1

> <standard_relation>
=

> <predicted_activity_value>
4.53269385993037

> <actual_activity_value>
4.249491605148654

> <Publication ID>
nan

> <standard_units>
nM

> hash
18408777365818835940

$$$$
30_
XXILIB    08252103453D 0   0.00000     0.00000

 21 23  0     1  0            999 V2000
    1.8846    0.6521   -3.5229 O   0  0  0  0  0  2           0  0  0
    0.0000    0.0000    0.0000 O   0  0  0  0  0  2           0  0  0
    2.0388    0.0000    1.1854 N   0  0  0  0  0  3           0  0  0
    4.0928    0.0578   -0.0009 N   0  0  0  0  0  3           0  0  0
    4.0771    0.0156    2.3475 N   0  0  0  0  0  3           0  0  0
    4.2019    0.0561   -2.3425 N   0  0  0  0  0  3           0  0  0
    1.2932    0.0116   -2.4740 C   0  0  0  0  0  4           0  0  0
    1.0428    0.5280   -4.5824 C   0  0  0  0  0  4           0  0  0
    1.3865    0.0000    0.0000 C   0  0  0  0  0  4           0  0  0
    3.3839    0.0249    1.1480 C   0  0  0  0  0  4           0  0  0
    3.4271    0.0763   -1.1844 C   0  0  0  0  0  4           0  0  0
    2.0315    0.0282   -1.2365 C   0  0  0  0  0  4           0  0  0
    0.0808   -0.5191   -2.8617 C   0  0  0  0  0  4           0  0  0
   -0.0784   -0.1857   -4.2287 C   0  0  0  0  0  4           0  0  0
   -0.5856    0.0000    1.3016 C   0  0  0  0  0  4           0  0  0
   -2.1084   -0.0000    1.1822 C   0  0  2  0  0  4           0  0  0
   -2.8168    0.0000    2.5478 C   0  0  0  0  0  4           0  0  0
   -2.6389    1.1257    0.2777 C   0  0  0  0  0  4           0  0  0
   -2.9101    1.3723    3.2107 C   0  0  0  0  0  4           0  0  0
   -2.7360    2.4899    0.9568 C   0  0  0  0  0  4           0  0  0
   -3.5039    2.4141    2.2706 C   0  0  0  0  0  4           0  0  0
  1  7  1  0     0  0
  1  8  1  0     0  0
  2  9  1  0     0  0
  2 15  1  0     0  0
  3  9  2  0     0  0
  3 10  1  0     0  0
  4 10  2  0     0  0
  4 11  1  0     0  0
  5 10  1  0     0  0
  6 11  1  0     0  0
  7 12  1  0     0  0
  7 13  2  0     0  0
  8 14  2  0     0  0
  9 12  1  0     0  0
 11 12  2  0     0  0
 13 14  1  0     0  0
 15 16  1  0     0  0
 16 17  1  0     0  0
 16 18  1  0     0  0
 17 19  1  0     0  0
 18 20  1  0     0  0
 19 21  1  0     0  0
 20 21  1  0     0  0
M  END
> <Compound >
30

> <standard_type>
pIC50

> <# Confs.>
25

> <canonical_smiles>
NC1=NC(N)=C(C2=CC=CO2)C(OCC3CCCCC3)=N1

> <standard_relation>
=

> <predicted_activity_value>
4.53269385993037

> <actual_activity_value>
4.249491605148654

> <Publication ID>
nan

> <standard_units>
nM

> hash
18408777365818835940

$$$$
30_
XXILIB    08252103453D 0   0.00000     0.00000

 21 23  0     1  0            999 V2000
    1.8846    0.6521   -3.5229 O   0  0  0  0  0  2           0  0  0
    0.0000    0.0000    0.0000 O   0  0  0  0  0  2           0  0  0
    2.0388    0.0000    1.1854 N   0  0  0  0  0  3           0  0  0
    4.0928    0.0578   -0.0009 N   0  0  0  0  0  3           0  0  0
    4.0771    0.0156    2.3475 N   0  0  0  0  0  3           0  0  0
    4.2019    0.0561   -2.3425 N   0  0  0  0  0  3           0  0  0
    1.2932    0.0116   -2.4740 C   0  0  0  0  0  4           0  0  0
    1.0428    0.5280   -4.5824 C   0  0  0  0  0  4           0  0  0
    1.3865    0.0000    0.0000 C   0  0  0  0  0  4           0  0  0
    3.3839    0.0249    1.1480 C   0  0  0  0  0  4           0  0  0
    3.4271    0.0763   -1.1844 C   0  0  0  0  0  4           0  0  0
    2.0315    0.0282   -1.2365 C   0  0  0  0  0  4           0  0  0
    0.0808   -0.5191   -2.8617 C   0  0  0  0  0  4           0  0  0
   -0.0784   -0.1857   -4.2287 C   0  0  0  0  0  4           0  0  0
   -0.5856    0.0000    1.3016 C   0  0  0  0  0  4           0  0  0
   -2.1084   -0.0000    1.1822 C   0  0  2  0  0  4           0  0  0
   -2.6506   -1.2270    0.4291 C   0  0  0  0  0  4           0  0  0
   -2.8160    0.1821    2.5360 C   0  0  0  0  0  4           0  0  0
   -2.7585   -2.4918    1.2776 C   0  0  0  0  0  4           0  0  0
   -2.9252   -1.0929    3.3691 C   0  0  0  0  0  4           0  0  0
   -3.5273   -2.2413    2.5690 C   0  0  0  0  0  4           0  0  0
  1  7  1  0     0  0
  1  8  1  0     0  0
  2  9  1  0     0  0
  2 15  1  0     0  0
  3  9  2  0     0  0
  3 10  1  0     0  0
  4 10  2  0     0  0
  4 11  1  0     0  0
  5 10  1  0     0  0
  6 11  1  0     0  0
  7 12  1  0     0  0
  7 13  2  0     0  0
  8 14  2  0     0  0
  9 12  1  0     0  0
 11 12  2  0     0  0
 13 14  1  0     0  0
 15 16  1  0     0  0
 16 17  1  0     0  0
 16 18  1  0     0  0
 17 19  1  0     0  0
 18 20  1  0     0  0
 19 21  1  0     0  0
 20 21  1  0     0  0
M  END
> <Compound >
30

> <standard_type>
pIC50

> <# Confs.>
25

> <canonical_smiles>
NC1=NC(N)=C(C2=CC=CO2)C(OCC3CCCCC3)=N1

> <standard_relation>
=

> <predicted_activity_value>
4.53269385993037

> <actual_activity_value>
4.249491605148654

> <Publication ID>
nan

> <standard_units>
nM

> hash
18408777365818835940

$$$$
30_
XXILIB    08252103453D 0   0.00000     0.00000

 21 23  0     1  0            999 V2000
    1.9244   -2.2645   -2.7688 O   0  0  0  0  0  2           0  0  0
    0.0000    0.0000    0.0000 O   0  0  0  0  0  2           0  0  0
    2.0388    0.5927    1.0266 N   0  0  0  0  0  3           0  0  0
    4.0928    0.0496   -0.0297 N   0  0  0  0  0  3           0  0  0
    4.0771    1.1873    2.0252 N   0  0  0  0  0  3           0  0  0
    4.2019   -1.1227   -2.0567 N   0  0  0  0  0  3           0  0  0
    1.2932   -1.2269   -2.1484 C   0  0  0  0  0  4           0  0  0
    1.0778   -2.7196   -3.7295 C   0  0  0  0  0  4           0  0  0
    1.3865    0.0000   -0.0000 C   0  0  0  0  0  4           0  0  0
    3.3839    0.5956    0.9817 C   0  0  0  0  0  4           0  0  0
    3.4271   -0.5261   -1.0638 C   0  0  0  0  0  4           0  0  0
    2.0315   -0.5938   -1.0850 C   0  0  0  0  0  4           0  0  0
    0.0502   -1.0210   -2.7092 C   0  0  0  0  0  4           0  0  0
   -0.0885   -1.9908   -3.7316 C   0  0  0  0  0  4           0  0  0
   -0.5856    0.0000    1.3016 C   0  0  0  0  0  4           0  0  0
   -2.1084   -0.0000    1.1822 C   0  0  2  0  0  4           0  0  0
   -2.6130   -1.2390    0.4250 C   0  0  0  0  0  4           0  0  0
   -2.6214    1.2814    0.5056 C   0  0  0  0  0  4           0  0  0
   -4.1357   -1.2419    0.3048 C   0  0  0  0  0  4           0  0  0
   -4.1442    1.2813    0.3856 C   0  0  0  0  0  4           0  0  0
   -4.6513    0.0400   -0.3419 C   0  0  0  0  0  4           0  0  0
  1  7  1  0     0  0
  1  8  1  0     0  0
  2  9  1  0     0  0
  2 15  1  0     0  0
  3  9  2  0     0  0
  3 10  1  0     0  0
  4 10  2  0     0  0
  4 11  1  0     0  0
  5 10  1  0     0  0
  6 11  1  0     0  0
  7 12  1  0     0  0
  7 13  2  0     0  0
  8 14  2  0     0  0
  9 12  1  0     0  0
 11 12  2  0     0  0
 13 14  1  0     0  0
 15 16  1  0     0  0
 16 17  1  0     0  0
 16 18  1  0     0  0
 17 19  1  0     0  0
 18 20  1  0     0  0
 19 21  1  0     0  0
 20 21  1  0     0  0
M  END
> <Compound >
30

> <standard_type>
pIC50

> <# Confs.>
25

> <canonical_smiles>
NC1=NC(N)=C(C2=CC=CO2)C(OCC3CCCCC3)=N1

> <standard_relation>
=

> <predicted_activity_value>
4.53269385993037

> <actual_activity_value>
4.249491605148654

> <Publication ID>
nan

> <standard_units>
nM

> hash
18408777365818835940

$$$$
30_
XXILIB    08252103453D 0   0.00000     0.00000

 21 23  0     1  0            999 V2000
    1.9244   -2.2645   -2.7688 O   0  0  0  0  0  2           0  0  0
    0.0000    0.0000    0.0000 O   0  0  0  0  0  2           0  0  0
    2.0388    0.5927    1.0266 N   0  0  0  0  0  3           0  0  0
    4.0928    0.0496   -0.0297 N   0  0  0  0  0  3           0  0  0
    4.0771    1.1873    2.0252 N   0  0  0  0  0  3           0  0  0
    4.2019   -1.1227   -2.0567 N   0  0  0  0  0  3           0  0  0
    1.2932   -1.2269   -2.1484 C   0  0  0  0  0  4           0  0  0
    1.0778   -2.7196   -3.7295 C   0  0  0  0  0  4           0  0  0
    1.3865    0.0000   -0.0000 C   0  0  0  0  0  4           0  0  0
    3.3839    0.5956    0.9817 C   0  0  0  0  0  4           0  0  0
    3.4271   -0.5261   -1.0638 C   0  0  0  0  0  4           0  0  0
    2.0315   -0.5938   -1.0850 C   0  0  0  0  0  4           0  0  0
    0.0502   -1.0210   -2.7092 C   0  0  0  0  0  4           0  0  0
   -0.0885   -1.9908   -3.7316 C   0  0  0  0  0  4           0  0  0
   -0.5856    0.0000    1.3016 C   0  0  0  0  0  4           0  0  0
   -2.1084   -0.0000    1.1822 C   0  0  2  0  0  4           0  0  0
   -2.6130    1.2390    0.4250 C   0  0  0  0  0  4           0  0  0
   -2.7826   -0.0913    2.5605 C   0  0  0  0  0  4           0  0  0
   -4.1356    1.2411    0.3035 C   0  0  0  0  0  4           0  0  0
   -4.3055   -0.0908    2.4413 C   0  0  0  0  0  4           0  0  0
   -4.8090    1.1236    1.6673 C   0  0  0  0  0  4           0  0  0
  1  7  1  0     0  0
  1  8  1  0     0  0
  2  9  1  0     0  0
  2 15  1  0     0  0
  3  9  2  0     0  0
  3 10  1  0     0  0
  4 10  2  0     0  0
  4 11  1  0     0  0
  5 10  1  0     0  0
  6 11  1  0     0  0
  7 12  1  0     0  0
  7 13  2  0     0  0
  8 14  2  0     0  0
  9 12  1  0     0  0
 11 12  2  0     0  0
 13 14  1  0     0  0
 15 16  1  0     0  0
 16 17  1  0     0  0
 16 18  1  0     0  0
 17 19  1  0     0  0
 18 20  1  0     0  0
 19 21  1  0     0  0
 20 21  1  0     0  0
M  END
> <Compound >
30

> <standard_type>
pIC50

> <# Confs.>
25

> <canonical_smiles>
NC1=NC(N)=C(C2=CC=CO2)C(OCC3CCCCC3)=N1

> <standard_relation>
=

> <predicted_activity_value>
4.53269385993037

> <actual_activity_value>
4.249491605148654

> <Publication ID>
nan

> <standard_units>
nM

> hash
18408777365818835940

$$$$
30_
XXILIB    08252103453D 0   0.00000     0.00000

 21 23  0     1  0            999 V2000
    1.9244   -2.2645   -2.7688 O   0  0  0  0  0  2           0  0  0
    0.0000    0.0000    0.0000 O   0  0  0  0  0  2           0  0  0
    2.0388    0.5927    1.0266 N   0  0  0  0  0  3           0  0  0
    4.0928    0.0496   -0.0297 N   0  0  0  0  0  3           0  0  0
    4.0771    1.1873    2.0252 N   0  0  0  0  0  3           0  0  0
    4.2019   -1.1227   -2.0567 N   0  0  0  0  0  3           0  0  0
    1.2932   -1.2269   -2.1484 C   0  0  0  0  0  4           0  0  0
    1.0778   -2.7196   -3.7295 C   0  0  0  0  0  4           0  0  0
    1.3865    0.0000   -0.0000 C   0  0  0  0  0  4           0  0  0
    3.3839    0.5956    0.9817 C   0  0  0  0  0  4           0  0  0
    3.4271   -0.5261   -1.0638 C   0  0  0  0  0  4           0  0  0
    2.0315   -0.5938   -1.0850 C   0  0  0  0  0  4           0  0  0
    0.0502   -1.0210   -2.7092 C   0  0  0  0  0  4           0  0  0
   -0.0885   -1.9908   -3.7316 C   0  0  0  0  0  4           0  0  0
   -0.5856    0.0000    1.3016 C   0  0  0  0  0  4           0  0  0
   -2.1084   -0.0000    1.1822 C   0  0  2  0  0  4           0  0  0
   -2.7809    0.0000    2.5645 C   0  0  0  0  0  4           0  0  0
   -2.6090   -1.1900    0.3479 C   0  0  0  0  0  4           0  0  0
   -4.3039    0.0008    2.4479 C   0  0  0  0  0  4           0  0  0
   -4.1319   -1.1905    0.2288 C   0  0  0  0  0  4           0  0  0
   -4.8036   -1.1636    1.5983 C   0  0  0  0  0  4           0  0  0
  1  7  1  0     0  0
  1  8  1  0     0  0
  2  9  1  0     0  0
  2 15  1  0     0  0
  3  9  2  0     0  0
  3 10  1  0     0  0
  4 10  2  0     0  0
  4 11  1  0     0  0
  5 10  1  0     0  0
  6 11  1  0     0  0
  7 12  1  0     0  0
  7 13  2  0     0  0
  8 14  2  0     0  0
  9 12  1  0     0  0
 11 12  2  0     0  0
 13 14  1  0     0  0
 15 16  1  0     0  0
 16 17  1  0     0  0
 16 18  1  0     0  0
 17 19  1  0     0  0
 18 20  1  0     0  0
 19 21  1  0     0  0
 20 21  1  0     0  0
M  END
> <Compound >
30

> <standard_type>
pIC50

> <# Confs.>
25

> <canonical_smiles>
NC1=NC(N)=C(C2=CC=CO2)C(OCC3CCCCC3)=N1

> <standard_relation>
=

> <predicted_activity_value>
4.53269385993037

> <actual_activity_value>
4.249491605148654

> <Publication ID>
nan

> <standard_units>
nM

> hash
18408777365818835940

$$$$
30_
XXILIB    08252103453D 0   0.00000     0.00000

 21 23  0     1  0            999 V2000
    0.4977   -1.0783   -2.6722 O   0  0  0  0  0  2           0  0  0
    0.0000    0.0000    0.0000 O   0  0  0  0  0  2           0  0  0
    2.0388    0.0000    1.1854 N   0  0  0  0  0  3           0  0  0
    4.0928    0.0578   -0.0009 N   0  0  0  0  0  3           0  0  0
    4.0771    0.0156    2.3475 N   0  0  0  0  0  3           0  0  0
    4.2019    0.0561   -2.3425 N   0  0  0  0  0  3           0  0  0
    1.2932    0.0116   -2.4740 C   0  0  0  0  0  4           0  0  0
   -0.1039   -0.9096   -3.8789 C   0  0  0  0  0  4           0  0  0
    1.3865    0.0000    0.0000 C   0  0  0  0  0  4           0  0  0
    3.3839    0.0249    1.1480 C   0  0  0  0  0  4           0  0  0
    3.4271    0.0763   -1.1844 C   0  0  0  0  0  4           0  0  0
    2.0315    0.0282   -1.2365 C   0  0  0  0  0  4           0  0  0
    1.1995    0.8719   -3.5479 C   0  0  0  0  0  4           0  0  0
    0.2919    0.2745   -4.4558 C   0  0  0  0  0  4           0  0  0
   -0.5856    0.0000    1.3016 C   0  0  0  0  0  4           0  0  0
   -2.1084   -0.0000    1.1822 C   0  0  2  0  0  4           0  0  0
   -2.6130   -1.2390    0.4250 C   0  0  0  0  0  4           0  0  0
   -2.6214    1.2814    0.5056 C   0  0  0  0  0  4           0  0  0
   -4.1357   -1.2419    0.3048 C   0  0  0  0  0  4           0  0  0
   -4.1442    1.2813    0.3856 C   0  0  0  0  0  4           0  0  0
   -4.6513    0.0400   -0.3419 C   0  0  0  0  0  4           0  0  0
  1  7  1  0     0  0
  1  8  1  0     0  0
  2  9  1  0     0  0
  2 15  1  0     0  0
  3  9  2  0     0  0
  3 10  1  0     0  0
  4 10  2  0     0  0
  4 11  1  0     0  0
  5 10  1  0     0  0
  6 11  1  0     0  0
  7 12  1  0     0  0
  7 13  2  0     0  0
  8 14  2  0     0  0
  9 12  1  0     0  0
 11 12  2  0     0  0
 13 14  1  0     0  0
 15 16  1  0     0  0
 16 17  1  0     0  0
 16 18  1  0     0  0
 17 19  1  0     0  0
 18 20  1  0     0  0
 19 21  1  0     0  0
 20 21  1  0     0  0
M  END
> <Compound >
30

> <standard_type>
pIC50

> <# Confs.>
25

> <canonical_smiles>
NC1=NC(N)=C(C2=CC=CO2)C(OCC3CCCCC3)=N1

> <standard_relation>
=

> <predicted_activity_value>
4.53269385993037

> <actual_activity_value>
4.249491605148654

> <Publication ID>
nan

> <standard_units>
nM

> hash
18408777365818835940

$$$$
30_
XXILIB    08252103453D 0   0.00000     0.00000

 21 23  0     1  0            999 V2000
    1.8846    0.6521   -3.5229 O   0  0  0  0  0  2           0  0  0
    0.0000    0.0000    0.0000 O   0  0  0  0  0  2           0  0  0
    2.0388    0.0000    1.1854 N   0  0  0  0  0  3           0  0  0
    4.0928    0.0578   -0.0009 N   0  0  0  0  0  3           0  0  0
    4.0771    0.0156    2.3475 N   0  0  0  0  0  3           0  0  0
    4.2019    0.0561   -2.3425 N   0  0  0  0  0  3           0  0  0
    1.2932    0.0116   -2.4740 C   0  0  0  0  0  4           0  0  0
    1.0428    0.5280   -4.5824 C   0  0  0  0  0  4           0  0  0
    1.3865    0.0000    0.0000 C   0  0  0  0  0  4           0  0  0
    3.3839    0.0249    1.1480 C   0  0  0  0  0  4           0  0  0
    3.4271    0.0763   -1.1844 C   0  0  0  0  0  4           0  0  0
    2.0315    0.0282   -1.2365 C   0  0  0  0  0  4           0  0  0
    0.0808   -0.5191   -2.8617 C   0  0  0  0  0  4           0  0  0
   -0.0784   -0.1857   -4.2287 C   0  0  0  0  0  4           0  0  0
   -0.5856    0.0000    1.3016 C   0  0  0  0  0  4           0  0  0
   -0.7973   -1.4377    1.7721 C   0  0  2  0  0  4           0  0  0
   -1.7289   -2.2085    0.8228 C   0  0  0  0  0  4           0  0  0
   -1.3432   -1.4870    3.2081 C   0  0  0  0  0  4           0  0  0
   -1.9416   -3.6470    1.2906 C   0  0  0  0  0  4           0  0  0
   -1.5554   -2.9247    3.6786 C   0  0  0  0  0  4           0  0  0
   -2.4581   -3.7014    2.7250 C   0  0  0  0  0  4           0  0  0
  1  7  1  0     0  0
  1  8  1  0     0  0
  2  9  1  0     0  0
  2 15  1  0     0  0
  3  9  2  0     0  0
  3 10  1  0     0  0
  4 10  2  0     0  0
  4 11  1  0     0  0
  5 10  1  0     0  0
  6 11  1  0     0  0
  7 12  1  0     0  0
  7 13  2  0     0  0
  8 14  2  0     0  0
  9 12  1  0     0  0
 11 12  2  0     0  0
 13 14  1  0     0  0
 15 16  1  0     0  0
 16 17  1  0     0  0
 16 18  1  0     0  0
 17 19  1  0     0  0
 18 20  1  0     0  0
 19 21  1  0     0  0
 20 21  1  0     0  0
M  END
> <Compound >
30

> <standard_type>
pIC50

> <# Confs.>
25

> <canonical_smiles>
NC1=NC(N)=C(C2=CC=CO2)C(OCC3CCCCC3)=N1

> <standard_relation>
=

> <predicted_activity_value>
4.53269385993037

> <actual_activity_value>
4.249491605148654

> <Publication ID>
nan

> <standard_units>
nM

> hash
18408777365818835940

$$$$
30_
XXILIB    08252103453D 0   0.00000     0.00000

 21 23  0     1  0            999 V2000
    0.4287    1.0501   -2.6596 O   0  0  0  0  0  2           0  0  0
    0.0000    0.0000    0.0000 O   0  0  0  0  0  2           0  0  0
    2.0388    0.0000    1.1854 N   0  0  0  0  0  3           0  0  0
    4.0928    0.0578   -0.0009 N   0  0  0  0  0  3           0  0  0
    4.0771    0.0156    2.3475 N   0  0  0  0  0  3           0  0  0
    4.2019    0.0561   -2.3425 N   0  0  0  0  0  3           0  0  0
    1.2932    0.0116   -2.4740 C   0  0  0  0  0  4           0  0  0
   -0.1647    0.8545   -3.8663 C   0  0  0  0  0  4           0  0  0
    1.3865    0.0000    0.0000 C   0  0  0  0  0  4           0  0  0
    3.3839    0.0249    1.1480 C   0  0  0  0  0  4           0  0  0
    3.4271    0.0763   -1.1844 C   0  0  0  0  0  4           0  0  0
    2.0315    0.0282   -1.2365 C   0  0  0  0  0  4           0  0  0
    1.2525   -0.8419   -3.5565 C   0  0  0  0  0  4           0  0  0
    0.3093   -0.2926   -4.4586 C   0  0  0  0  0  4           0  0  0
   -0.5856    0.0000    1.3016 C   0  0  0  0  0  4           0  0  0
   -2.1084   -0.0000    1.1822 C   0  0  2  0  0  4           0  0  0
   -2.6404    1.2316    0.4272 C   0  0  0  0  0  4           0  0  0
   -2.7786   -0.1151    2.5594 C   0  0  0  0  0  4           0  0  0
   -2.5435    2.5191    1.2445 C   0  0  0  0  0  4           0  0  0
   -2.6751    1.1700    3.3789 C   0  0  0  0  0  4           0  0  0
   -3.2135    2.3712    2.6073 C   0  0  0  0  0  4           0  0  0
  1  7  1  0     0  0
  1  8  1  0     0  0
  2  9  1  0     0  0
  2 15  1  0     0  0
  3  9  2  0     0  0
  3 10  1  0     0  0
  4 10  2  0     0  0
  4 11  1  0     0  0
  5 10  1  0     0  0
  6 11  1  0     0  0
  7 12  1  0     0  0
  7 13  2  0     0  0
  8 14  2  0     0  0
  9 12  1  0     0  0
 11 12  2  0     0  0
 13 14  1  0     0  0
 15 16  1  0     0  0
 16 17  1  0     0  0
 16 18  1  0     0  0
 17 19  1  0     0  0
 18 20  1  0     0  0
 19 21  1  0     0  0
 20 21  1  0     0  0
M  END
> <Compound >
30

> <standard_type>
pIC50

> <# Confs.>
25

> <canonical_smiles>
NC1=NC(N)=C(C2=CC=CO2)C(OCC3CCCCC3)=N1

> <standard_relation>
=

> <predicted_activity_value>
4.53269385993037

> <actual_activity_value>
4.249491605148654

> <Publication ID>
nan

> <standard_units>
nM

> hash
18408777365818835940

$$$$
30_
XXILIB    08252103453D 0   0.00000     0.00000

 21 23  0     1  0            999 V2000
    0.4977   -1.0783   -2.6722 O   0  0  0  0  0  2           0  0  0
    0.0000    0.0000    0.0000 O   0  0  0  0  0  2           0  0  0
    2.0388    0.0000    1.1854 N   0  0  0  0  0  3           0  0  0
    4.0928    0.0578   -0.0009 N   0  0  0  0  0  3           0  0  0
    4.0771    0.0156    2.3475 N   0  0  0  0  0  3           0  0  0
    4.2019    0.0561   -2.3425 N   0  0  0  0  0  3           0  0  0
    1.2932    0.0116   -2.4740 C   0  0  0  0  0  4           0  0  0
   -0.1039   -0.9096   -3.8789 C   0  0  0  0  0  4           0  0  0
    1.3865    0.0000    0.0000 C   0  0  0  0  0  4           0  0  0
    3.3839    0.0249    1.1480 C   0  0  0  0  0  4           0  0  0
    3.4271    0.0763   -1.1844 C   0  0  0  0  0  4           0  0  0
    2.0315    0.0282   -1.2365 C   0  0  0  0  0  4           0  0  0
    1.1995    0.8719   -3.5479 C   0  0  0  0  0  4           0  0  0
    0.2919    0.2745   -4.4558 C   0  0  0  0  0  4           0  0  0
   -0.5856    0.0000    1.3016 C   0  0  0  0  0  4           0  0  0
   -2.1084   -0.0000    1.1822 C   0  0  2  0  0  4           0  0  0
   -2.6130    1.2390    0.4250 C   0  0  0  0  0  4           0  0  0
   -2.7826   -0.0913    2.5605 C   0  0  0  0  0  4           0  0  0
   -4.1356    1.2411    0.3035 C   0  0  0  0  0  4           0  0  0
   -4.3055   -0.0908    2.4413 C   0  0  0  0  0  4           0  0  0
   -4.8090    1.1236    1.6673 C   0  0  0  0  0  4           0  0  0
  1  7  1  0     0  0
  1  8  1  0     0  0
  2  9  1  0     0  0
  2 15  1  0     0  0
  3  9  2  0     0  0
  3 10  1  0     0  0
  4 10  2  0     0  0
  4 11  1  0     0  0
  5 10  1  0     0  0
  6 11  1  0     0  0
  7 12  1  0     0  0
  7 13  2  0     0  0
  8 14  2  0     0  0
  9 12  1  0     0  0
 11 12  2  0     0  0
 13 14  1  0     0  0
 15 16  1  0     0  0
 16 17  1  0     0  0
 16 18  1  0     0  0
 17 19  1  0     0  0
 18 20  1  0     0  0
 19 21  1  0     0  0
 20 21  1  0     0  0
M  END
> <Compound >
30

> <standard_type>
pIC50

> <# Confs.>
25

> <canonical_smiles>
NC1=NC(N)=C(C2=CC=CO2)C(OCC3CCCCC3)=N1

> <standard_relation>
=

> <predicted_activity_value>
4.53269385993037

> <actual_activity_value>
4.249491605148654

> <Publication ID>
nan

> <standard_units>
nM

> hash
18408777365818835940

$$$$
30_
XXILIB    08252103453D 0   0.00000     0.00000

 21 23  0     1  0            999 V2000
    0.4977   -1.0783   -2.6722 O   0  0  0  0  0  2           0  0  0
    0.0000    0.0000    0.0000 O   0  0  0  0  0  2           0  0  0
    2.0388    0.0000    1.1854 N   0  0  0  0  0  3           0  0  0
    4.0928    0.0578   -0.0009 N   0  0  0  0  0  3           0  0  0
    4.0771    0.0156    2.3475 N   0  0  0  0  0  3           0  0  0
    4.2019    0.0561   -2.3425 N   0  0  0  0  0  3           0  0  0
    1.2932    0.0116   -2.4740 C   0  0  0  0  0  4           0  0  0
   -0.1039   -0.9096   -3.8789 C   0  0  0  0  0  4           0  0  0
    1.3865    0.0000    0.0000 C   0  0  0  0  0  4           0  0  0
    3.3839    0.0249    1.1480 C   0  0  0  0  0  4           0  0  0
    3.4271    0.0763   -1.1844 C   0  0  0  0  0  4           0  0  0
    2.0315    0.0282   -1.2365 C   0  0  0  0  0  4           0  0  0
    1.1995    0.8719   -3.5479 C   0  0  0  0  0  4           0  0  0
    0.2919    0.2745   -4.4558 C   0  0  0  0  0  4           0  0  0
   -0.5856    0.0000    1.3016 C   0  0  0  0  0  4           0  0  0
   -2.1084   -0.0000    1.1822 C   0  0  2  0  0  4           0  0  0
   -2.7809    0.0000    2.5645 C   0  0  0  0  0  4           0  0  0
   -2.6090   -1.1900    0.3479 C   0  0  0  0  0  4           0  0  0
   -4.3039    0.0008    2.4479 C   0  0  0  0  0  4           0  0  0
   -4.1319   -1.1905    0.2288 C   0  0  0  0  0  4           0  0  0
   -4.8036   -1.1636    1.5983 C   0  0  0  0  0  4           0  0  0
  1  7  1  0     0  0
  1  8  1  0     0  0
  2  9  1  0     0  0
  2 15  1  0     0  0
  3  9  2  0     0  0
  3 10  1  0     0  0
  4 10  2  0     0  0
  4 11  1  0     0  0
  5 10  1  0     0  0
  6 11  1  0     0  0
  7 12  1  0     0  0
  7 13  2  0     0  0
  8 14  2  0     0  0
  9 12  1  0     0  0
 11 12  2  0     0  0
 13 14  1  0     0  0
 15 16  1  0     0  0
 16 17  1  0     0  0
 16 18  1  0     0  0
 17 19  1  0     0  0
 18 20  1  0     0  0
 19 21  1  0     0  0
 20 21  1  0     0  0
M  END
> <Compound >
30

> <standard_type>
pIC50

> <# Confs.>
25

> <canonical_smiles>
NC1=NC(N)=C(C2=CC=CO2)C(OCC3CCCCC3)=N1

> <standard_relation>
=

> <predicted_activity_value>
4.53269385993037

> <actual_activity_value>
4.249491605148654

> <Publication ID>
nan

> <standard_units>
nM

> hash
18408777365818835940

$$$$
30_
XXILIB    08252103453D 0   0.00000     0.00000

 21 23  0     1  0            999 V2000
    0.4287    1.0501   -2.6596 O   0  0  0  0  0  2           0  0  0
    0.0000    0.0000    0.0000 O   0  0  0  0  0  2           0  0  0
    2.0388    0.0000    1.1854 N   0  0  0  0  0  3           0  0  0
    4.0928    0.0578   -0.0009 N   0  0  0  0  0  3           0  0  0
    4.0771    0.0156    2.3475 N   0  0  0  0  0  3           0  0  0
    4.2019    0.0561   -2.3425 N   0  0  0  0  0  3           0  0  0
    1.2932    0.0116   -2.4740 C   0  0  0  0  0  4           0  0  0
   -0.1647    0.8545   -3.8663 C   0  0  0  0  0  4           0  0  0
    1.3865    0.0000    0.0000 C   0  0  0  0  0  4           0  0  0
    3.3839    0.0249    1.1480 C   0  0  0  0  0  4           0  0  0
    3.4271    0.0763   -1.1844 C   0  0  0  0  0  4           0  0  0
    2.0315    0.0282   -1.2365 C   0  0  0  0  0  4           0  0  0
    1.2525   -0.8419   -3.5565 C   0  0  0  0  0  4           0  0  0
    0.3093   -0.2926   -4.4586 C   0  0  0  0  0  4           0  0  0
   -0.5856    0.0000    1.3016 C   0  0  0  0  0  4           0  0  0
   -2.1084   -0.0000    1.1822 C   0  0  2  0  0  4           0  0  0
   -2.8072    0.0000    2.5539 C   0  0  0  0  0  4           0  0  0
   -2.6036   -1.1769    0.3284 C   0  0  0  0  0  4           0  0  0
   -2.7029   -1.3428    3.2756 C   0  0  0  0  0  4           0  0  0
   -2.4922   -2.5200    1.0478 C   0  0  0  0  0  4           0  0  0
   -3.1973   -2.4909    2.4007 C   0  0  0  0  0  4           0  0  0
  1  7  1  0     0  0
  1  8  1  0     0  0
  2  9  1  0     0  0
  2 15  1  0     0  0
  3  9  2  0     0  0
  3 10  1  0     0  0
  4 10  2  0     0  0
  4 11  1  0     0  0
  5 10  1  0     0  0
  6 11  1  0     0  0
  7 12  1  0     0  0
  7 13  2  0     0  0
  8 14  2  0     0  0
  9 12  1  0     0  0
 11 12  2  0     0  0
 13 14  1  0     0  0
 15 16  1  0     0  0
 16 17  1  0     0  0
 16 18  1  0     0  0
 17 19  1  0     0  0
 18 20  1  0     0  0
 19 21  1  0     0  0
 20 21  1  0     0  0
M  END
> <Compound >
30

> <standard_type>
pIC50

> <# Confs.>
25

> <canonical_smiles>
NC1=NC(N)=C(C2=CC=CO2)C(OCC3CCCCC3)=N1

> <standard_relation>
=

> <predicted_activity_value>
4.53269385993037

> <actual_activity_value>
4.249491605148654

> <Publication ID>
nan

> <standard_units>
nM

> hash
18408777365818835940

$$$$
30_
XXILIB    08252103453D 0   0.00000     0.00000

 21 23  0     1  0            999 V2000
    1.8846    2.3262   -2.7248 O   0  0  0  0  0  2           0  0  0
    0.0000    0.0000    0.0000 O   0  0  0  0  0  2           0  0  0
    2.0388   -0.5927    1.0266 N   0  0  0  0  0  3           0  0  0
    4.0928    0.0505    0.0281 N   0  0  0  0  0  3           0  0  0
    4.0771   -1.1603    2.0408 N   0  0  0  0  0  3           0  0  0
    4.2019    1.2198   -2.0006 N   0  0  0  0  0  3           0  0  0
    1.2932    1.2471   -2.1367 C   0  0  0  0  0  4           0  0  0
    1.0428    2.7484   -3.7044 C   0  0  0  0  0  4           0  0  0
    1.3865    0.0000    0.0000 C   0  0  0  0  0  4           0  0  0
    3.3839   -0.5524    1.0067 C   0  0  0  0  0  4           0  0  0
    3.4271    0.6583   -0.9876 C   0  0  0  0  0  4           0  0  0
    2.0315    0.6427   -1.0568 C   0  0  0  0  0  4           0  0  0
    0.0808    0.9813   -2.7379 C   0  0  0  0  0  4           0  0  0
   -0.0784    1.9535   -3.7550 C   0  0  0  0  0  4           0  0  0
   -0.5856    0.0000    1.3016 C   0  0  0  0  0  4           0  0  0
   -1.9328   -0.7189    1.2612 C   0  0  2  0  0  4           0  0  0
   -1.7782   -2.1773    0.8006 C   0  0  0  0  0  4           0  0  0
   -2.9389    0.0181    0.3628 C   0  0  0  0  0  4           0  0  0
   -3.1240   -2.8987    0.7601 C   0  0  0  0  0  4           0  0  0
   -4.2860   -0.7009    0.3218 C   0  0  0  0  0  4           0  0  0
   -4.1342   -2.1564   -0.1092 C   0  0  0  0  0  4           0  0  0
  1  7  1  0     0  0
  1  8  1  0     0  0
  2  9  1  0     0  0
  2 15  1  0     0  0
  3  9  2  0     0  0
  3 10  1  0     0  0
  4 10  2  0     0  0
  4 11  1  0     0  0
  5 10  1  0     0  0
  6 11  1  0     0  0
  7 12  1  0     0  0
  7 13  2  0     0  0
  8 14  2  0     0  0
  9 12  1  0     0  0
 11 12  2  0     0  0
 13 14  1  0     0  0
 15 16  1  0     0  0
 16 17  1  0     0  0
 16 18  1  0     0  0
 17 19  1  0     0  0
 18 20  1  0     0  0
 19 21  1  0     0  0
 20 21  1  0     0  0
M  END
> <Compound >
30

> <standard_type>
pIC50

> <# Confs.>
25

> <canonical_smiles>
NC1=NC(N)=C(C2=CC=CO2)C(OCC3CCCCC3)=N1

> <standard_relation>
=

> <predicted_activity_value>
4.53269385993037

> <actual_activity_value>
4.249491605148654

> <Publication ID>
nan

> <standard_units>
nM

> hash
18408777365818835940

$$$$
30_
XXILIB    08252103453D 0   0.00000     0.00000

 21 23  0     1  0            999 V2000
    1.8846   -1.1967   -3.3770 O   0  0  0  0  0  2           0  0  0
    0.0000    0.0000   -0.0000 O   0  0  0  0  0  2           0  0  0
    2.0388    0.5927    1.0266 N   0  0  0  0  0  3           0  0  0
    4.0928    0.0496   -0.0297 N   0  0  0  0  0  3           0  0  0
    4.0771    1.1873    2.0252 N   0  0  0  0  0  3           0  0  0
    4.2019   -1.1227   -2.0567 N   0  0  0  0  0  3           0  0  0
    1.2932   -1.2269   -2.1484 C   0  0  0  0  0  4           0  0  0
    1.0428   -1.8339   -4.2324 C   0  0  0  0  0  4           0  0  0
    1.3865    0.0000   -0.0000 C   0  0  0  0  0  4           0  0  0
    3.3839    0.5956    0.9817 C   0  0  0  0  0  4           0  0  0
    3.4271   -0.5261   -1.0638 C   0  0  0  0  0  4           0  0  0
    2.0315   -0.5938   -1.0850 C   0  0  0  0  0  4           0  0  0
    0.0808   -1.8804   -2.2188 C   0  0  0  0  0  4           0  0  0
   -0.0784   -2.2752   -3.5693 C   0  0  0  0  0  4           0  0  0
   -0.5856    0.0000    1.3016 C   0  0  0  0  0  4           0  0  0
   -1.9328    0.7189    1.2612 C   0  0  2  0  0  4           0  0  0
   -2.9081    0.0312    0.2923 C   0  0  0  0  0  4           0  0  0
   -1.7704    2.2013    0.8885 C   0  0  0  0  0  4           0  0  0
   -4.2565    0.7478    0.2505 C   0  0  0  0  0  4           0  0  0
   -3.1175    2.9202    0.8475 C   0  0  0  0  0  4           0  0  0
   -4.0977    2.2257   -0.0928 C   0  0  0  0  0  4           0  0  0
  1  7  1  0     0  0
  1  8  1  0     0  0
  2  9  1  0     0  0
  2 15  1  0     0  0
  3  9  2  0     0  0
  3 10  1  0     0  0
  4 10  2  0     0  0
  4 11  1  0     0  0
  5 10  1  0     0  0
  6 11  1  0     0  0
  7 12  1  0     0  0
  7 13  2  0     0  0
  8 14  2  0     0  0
  9 12  1  0     0  0
 11 12  2  0     0  0
 13 14  1  0     0  0
 15 16  1  0     0  0
 16 17  1  0     0  0
 16 18  1  0     0  0
 17 19  1  0     0  0
 18 20  1  0     0  0
 19 21  1  0     0  0
 20 21  1  0     0  0
M  END
> <Compound >
30

> <standard_type>
pIC50

> <# Confs.>
25

> <canonical_smiles>
NC1=NC(N)=C(C2=CC=CO2)C(OCC3CCCCC3)=N1

> <standard_relation>
=

> <predicted_activity_value>
4.53269385993037

> <actual_activity_value>
4.249491605148654

> <Publication ID>
nan

> <standard_units>
nM

> hash
18408777365818835940

$$$$
30_
XXILIB    08252103453D 0   0.00000     0.00000

 21 23  0     1  0            999 V2000
    1.8846    2.3262   -2.7248 O   0  0  0  0  0  2           0  0  0
    0.0000    0.0000    0.0000 O   0  0  0  0  0  2           0  0  0
    2.0388   -0.5927    1.0266 N   0  0  0  0  0  3           0  0  0
    4.0928    0.0505    0.0281 N   0  0  0  0  0  3           0  0  0
    4.0771   -1.1603    2.0408 N   0  0  0  0  0  3           0  0  0
    4.2019    1.2198   -2.0006 N   0  0  0  0  0  3           0  0  0
    1.2932    1.2471   -2.1367 C   0  0  0  0  0  4           0  0  0
    1.0428    2.7484   -3.7044 C   0  0  0  0  0  4           0  0  0
    1.3865    0.0000    0.0000 C   0  0  0  0  0  4           0  0  0
    3.3839   -0.5524    1.0067 C   0  0  0  0  0  4           0  0  0
    3.4271    0.6583   -0.9876 C   0  0  0  0  0  4           0  0  0
    2.0315    0.6427   -1.0568 C   0  0  0  0  0  4           0  0  0
    0.0808    0.9813   -2.7379 C   0  0  0  0  0  4           0  0  0
   -0.0784    1.9535   -3.7550 C   0  0  0  0  0  4           0  0  0
   -0.5856    0.0000    1.3016 C   0  0  0  0  0  4           0  0  0
   -1.9328   -0.7189    1.2612 C   0  0  2  0  0  4           0  0  0
   -2.9081   -0.0312    0.2923 C   0  0  0  0  0  4           0  0  0
   -2.5593   -0.8226    2.6610 C   0  0  0  0  0  4           0  0  0
   -4.2560   -0.7487    0.2494 C   0  0  0  0  0  4           0  0  0
   -3.9067   -1.5410    2.6207 C   0  0  0  0  0  4           0  0  0
   -4.8691   -0.8776    1.6403 C   0  0  0  0  0  4           0  0  0
  1  7  1  0     0  0
  1  8  1  0     0  0
  2  9  1  0     0  0
  2 15  1  0     0  0
  3  9  2  0     0  0
  3 10  1  0     0  0
  4 10  2  0     0  0
  4 11  1  0     0  0
  5 10  1  0     0  0
  6 11  1  0     0  0
  7 12  1  0     0  0
  7 13  2  0     0  0
  8 14  2  0     0  0
  9 12  1  0     0  0
 11 12  2  0     0  0
 13 14  1  0     0  0
 15 16  1  0     0  0
 16 17  1  0     0  0
 16 18  1  0     0  0
 17 19  1  0     0  0
 18 20  1  0     0  0
 19 21  1  0     0  0
 20 21  1  0     0  0
M  END
> <Compound >
30

> <standard_type>
pIC50

> <# Confs.>
25

> <canonical_smiles>
NC1=NC(N)=C(C2=CC=CO2)C(OCC3CCCCC3)=N1

> <standard_relation>
=

> <predicted_activity_value>
4.53269385993037

> <actual_activity_value>
4.249491605148654

> <Publication ID>
nan

> <standard_units>
nM

> hash
18408777365818835940

$$$$
30_
XXILIB    08252103453D 0   0.00000     0.00000

 21 23  0     1  0            999 V2000
    0.9509   -0.4184   -3.1921 O   0  0  0  0  0  2           0  0  0
    0.0000    0.0000    0.0000 O   0  0  0  0  0  2           0  0  0
    2.0388    0.5927    1.0266 N   0  0  0  0  0  3           0  0  0
    4.0928    0.0496   -0.0297 N   0  0  0  0  0  3           0  0  0
    4.0771    1.1873    2.0252 N   0  0  0  0  0  3           0  0  0
    4.2019   -1.1227   -2.0567 N   0  0  0  0  0  3           0  0  0
    1.2932   -1.2269   -2.1484 C   0  0  0  0  0  4           0  0  0
    0.2679   -1.1903   -4.0776 C   0  0  0  0  0  4           0  0  0
    1.3865    0.0000   -0.0000 C   0  0  0  0  0  4           0  0  0
    3.3839    0.5956    0.9817 C   0  0  0  0  0  4           0  0  0
    3.4271   -0.5261   -1.0638 C   0  0  0  0  0  4           0  0  0
    2.0315   -0.5938   -1.0850 C   0  0  0  0  0  4           0  0  0
    0.8318   -2.5081   -2.3665 C   0  0  0  0  0  4           0  0  0
    0.1701   -2.4830   -3.6181 C   0  0  0  0  0  4           0  0  0
   -0.5856    0.0000    1.3016 C   0  0  0  0  0  4           0  0  0
   -1.9328   -0.7189    1.2612 C   0  0  2  0  0  4           0  0  0
   -2.5996   -0.7419    2.6461 C   0  0  0  0  0  4           0  0  0
   -1.7931   -2.1489    0.7150 C   0  0  0  0  0  4           0  0  0
   -3.9474   -1.4596    2.6082 C   0  0  0  0  0  4           0  0  0
   -3.1402   -2.8681    0.6750 C   0  0  0  0  0  4           0  0  0
   -3.8179   -2.8701    2.0418 C   0  0  0  0  0  4           0  0  0
  1  7  1  0     0  0
  1  8  1  0     0  0
  2  9  1  0     0  0
  2 15  1  0     0  0
  3  9  2  0     0  0
  3 10  1  0     0  0
  4 10  2  0     0  0
  4 11  1  0     0  0
  5 10  1  0     0  0
  6 11  1  0     0  0
  7 12  1  0     0  0
  7 13  2  0     0  0
  8 14  2  0     0  0
  9 12  1  0     0  0
 11 12  2  0     0  0
 13 14  1  0     0  0
 15 16  1  0     0  0
 16 17  1  0     0  0
 16 18  1  0     0  0
 17 19  1  0     0  0
 18 20  1  0     0  0
 19 21  1  0     0  0
 20 21  1  0     0  0
M  END
> <Compound >
30

> <standard_type>
pIC50

> <# Confs.>
25

> <canonical_smiles>
NC1=NC(N)=C(C2=CC=CO2)C(OCC3CCCCC3)=N1

> <standard_relation>
=

> <predicted_activity_value>
4.53269385993037

> <actual_activity_value>
4.249491605148654

> <Publication ID>
nan

> <standard_units>
nM

> hash
18408777365818835940

$$$$
30_
XXILIB    08252103453D 0   0.00000     0.00000

 21 23  0     1  0            999 V2000
    1.8846    2.3262   -2.7248 O   0  0  0  0  0  2           0  0  0
    0.0000    0.0000    0.0000 O   0  0  0  0  0  2           0  0  0
    2.0388   -0.5927    1.0266 N   0  0  0  0  0  3           0  0  0
    4.0928    0.0505    0.0281 N   0  0  0  0  0  3           0  0  0
    4.0771   -1.1603    2.0408 N   0  0  0  0  0  3           0  0  0
    4.2019    1.2198   -2.0006 N   0  0  0  0  0  3           0  0  0
    1.2932    1.2471   -2.1367 C   0  0  0  0  0  4           0  0  0
    1.0428    2.7484   -3.7044 C   0  0  0  0  0  4           0  0  0
    1.3865    0.0000    0.0000 C   0  0  0  0  0  4           0  0  0
    3.3839   -0.5524    1.0067 C   0  0  0  0  0  4           0  0  0
    3.4271    0.6583   -0.9876 C   0  0  0  0  0  4           0  0  0
    2.0315    0.6427   -1.0568 C   0  0  0  0  0  4           0  0  0
    0.0808    0.9813   -2.7379 C   0  0  0  0  0  4           0  0  0
   -0.0784    1.9535   -3.7550 C   0  0  0  0  0  4           0  0  0
   -0.5856    0.0000    1.3016 C   0  0  0  0  0  4           0  0  0
   -1.9328   -0.7189    1.2612 C   0  0  2  0  0  4           0  0  0
   -2.5996   -0.7419    2.6461 C   0  0  0  0  0  4           0  0  0
   -1.7931   -2.1489    0.7150 C   0  0  0  0  0  4           0  0  0
   -3.9474   -1.4596    2.6082 C   0  0  0  0  0  4           0  0  0
   -3.1402   -2.8681    0.6750 C   0  0  0  0  0  4           0  0  0
   -3.8179   -2.8701    2.0418 C   0  0  0  0  0  4           0  0  0
  1  7  1  0     0  0
  1  8  1  0     0  0
  2  9  1  0     0  0
  2 15  1  0     0  0
  3  9  2  0     0  0
  3 10  1  0     0  0
  4 10  2  0     0  0
  4 11  1  0     0  0
  5 10  1  0     0  0
  6 11  1  0     0  0
  7 12  1  0     0  0
  7 13  2  0     0  0
  8 14  2  0     0  0
  9 12  1  0     0  0
 11 12  2  0     0  0
 13 14  1  0     0  0
 15 16  1  0     0  0
 16 17  1  0     0  0
 16 18  1  0     0  0
 17 19  1  0     0  0
 18 20  1  0     0  0
 19 21  1  0     0  0
 20 21  1  0     0  0
M  END
> <Compound >
30

> <standard_type>
pIC50

> <# Confs.>
25

> <canonical_smiles>
NC1=NC(N)=C(C2=CC=CO2)C(OCC3CCCCC3)=N1

> <standard_relation>
=

> <predicted_activity_value>
4.53269385993037

> <actual_activity_value>
4.249491605148654

> <Publication ID>
nan

> <standard_units>
nM

> hash
18408777365818835940

$$$$
30_
XXILIB    08252103453D 0   0.00000     0.00000

 21 23  0     1  0            999 V2000
    1.8846   -1.1967   -3.3770 O   0  0  0  0  0  2           0  0  0
    0.0000    0.0000   -0.0000 O   0  0  0  0  0  2           0  0  0
    2.0388    0.5927    1.0266 N   0  0  0  0  0  3           0  0  0
    4.0928    0.0496   -0.0297 N   0  0  0  0  0  3           0  0  0
    4.0771    1.1873    2.0252 N   0  0  0  0  0  3           0  0  0
    4.2019   -1.1227   -2.0567 N   0  0  0  0  0  3           0  0  0
    1.2932   -1.2269   -2.1484 C   0  0  0  0  0  4           0  0  0
    1.0428   -1.8339   -4.2324 C   0  0  0  0  0  4           0  0  0
    1.3865    0.0000   -0.0000 C   0  0  0  0  0  4           0  0  0
    3.3839    0.5956    0.9817 C   0  0  0  0  0  4           0  0  0
    3.4271   -0.5261   -1.0638 C   0  0  0  0  0  4           0  0  0
    2.0315   -0.5938   -1.0850 C   0  0  0  0  0  4           0  0  0
    0.0808   -1.8804   -2.2188 C   0  0  0  0  0  4           0  0  0
   -0.0784   -2.2752   -3.5693 C   0  0  0  0  0  4           0  0  0
   -0.5856    0.0000    1.3016 C   0  0  0  0  0  4           0  0  0
   -1.9328    0.7189    1.2612 C   0  0  2  0  0  4           0  0  0
   -1.7782    2.1773    0.8006 C   0  0  0  0  0  4           0  0  0
   -2.6426    0.6644    2.6235 C   0  0  0  0  0  4           0  0  0
   -3.1242    2.8983    0.7586 C   0  0  0  0  0  4           0  0  0
   -3.9895    1.3837    2.5834 C   0  0  0  0  0  4           0  0  0
   -3.8444    2.8238    2.1013 C   0  0  0  0  0  4           0  0  0
  1  7  1  0     0  0
  1  8  1  0     0  0
  2  9  1  0     0  0
  2 15  1  0     0  0
  3  9  2  0     0  0
  3 10  1  0     0  0
  4 10  2  0     0  0
  4 11  1  0     0  0
  5 10  1  0     0  0
  6 11  1  0     0  0
  7 12  1  0     0  0
  7 13  2  0     0  0
  8 14  2  0     0  0
  9 12  1  0     0  0
 11 12  2  0     0  0
 13 14  1  0     0  0
 15 16  1  0     0  0
 16 17  1  0     0  0
 16 18  1  0     0  0
 17 19  1  0     0  0
 18 20  1  0     0  0
 19 21  1  0     0  0
 20 21  1  0     0  0
M  END
> <Compound >
30

> <standard_type>
pIC50

> <# Confs.>
25

> <canonical_smiles>
NC1=NC(N)=C(C2=CC=CO2)C(OCC3CCCCC3)=N1

> <standard_relation>
=

> <predicted_activity_value>
4.53269385993037

> <actual_activity_value>
4.249491605148654

> <Publication ID>
nan

> <standard_units>
nM

> hash
18408777365818835940

$$$$
