0
  CDPL    08252113263D 1   1.00000     0.00000

 25 26  0     0  0            999 V2000
    0.0000    0.0000    0.0000 O   0  0  0  0  0  2           0  0  0
    0.0000    0.0000    0.0000 S   0  0  0  0  0  6           0  0  0
    0.0000    0.0000    0.0000 C   0  0  0  0  0  4           0  0  0
    0.0000    0.0000    0.0000 C   0  0  0  0  0  4           0  0  0
    0.0000    0.0000    0.0000 C   0  0  0  0  0  4           0  0  0
    0.0000    0.0000    0.0000 C   0  0  0  0  0  4           0  0  0
    0.0000    0.0000    0.0000 N   0  0  0  0  0  3           0  0  0
    0.0000    0.0000    0.0000 C   0  0  0  0  0  4           0  0  0
    0.0000    0.0000    0.0000 N   0  0  0  0  0  3           0  0  0
    0.0000    0.0000    0.0000 C   0  0  0  0  0  4           0  0  0
    0.0000    0.0000    0.0000 C   0  0  0  0  0  4           0  0  0
    0.0000    0.0000    0.0000 C   0  0  0  0  0  4           0  0  0
    0.0000    0.0000    0.0000 H   0  0  0  0  0  1           0  0  0
    0.0000    0.0000    0.0000 O   0  0  0  0  0  2           0  0  0
    0.0000    0.0000    0.0000 C   0  0  0  0  0  4           0  0  0
    0.0000    0.0000    0.0000 O   0  0  0  0  0  2           0  0  0
    0.0000    0.0000    0.0000 C   0  0  2  0  0  4           0  0  0
    0.0000    0.0000    0.0000 C   0  0  0  0  0  4           0  0  0
    0.0000    0.0000    0.0000 C   0  0  0  0  0  4           0  0  0
    0.0000    0.0000    0.0000 C   0  0  0  0  0  4           0  0  0
    0.0000    0.0000    0.0000 N   0  0  0  0  0  3           0  0  0
    0.0000    0.0000    0.0000 C   0  0  0  0  0  4           0  0  0
    0.0000    0.0000    0.0000 C   0  0  0  0  0  4           0  0  0
    0.0000    0.0000    0.0000 N   0  0  0  0  0  3           0  0  0
    0.0000    0.0000    0.0000 O   0  0  0  0  0  2           0  0  0
  1  2  2  0     0  0
  2  3  1  0     0  0
  3  4  2  0     0  0
  4  5  1  0     0  0
  5  6  2  0     0  0
  6  7  1  0     0  0
  7  8  1  0     0  0
  8  9  2  0     0  0
  9 10  1  0     0  0
 10 11  2  0     0  0
 11 12  1  0     0  0
 12 13  1  0     0  0
 12 14  2  0     0  0
 11 15  1  0     0  0
 15 16  1  0     0  0
 16 17  1  0     0  0
 17 18  1  0     0  0
 17 19  1  0     0  0
 19 20  1  0     0  0
  8 21  1  0     0  0
 15 21  2  0     0  0
  6 22  1  0     0  0
  3 23  1  0     0  0
 22 23  2  0     0  0
  2 24  1  0     0  0
  2 25  2  0     0  0
M  END
> <Compound >
1

> <canonical_smiles>
O=S(C1=CC=C(NC2=NC=C(C([H])=O)C(O[C@H](C)CC)=N2)C=C1)(N)=O

> <standard_type>
pIC50

> <standard_units>
nM

> <standard_relation>
=

> <actual_activity_value>
7.882728704344236

> <predicted_activity_value>
7.698970004336019

> <Publication ID>
Ece_2013

$$$$
1
  CDPL    08252113263D 1   1.00000     0.00000

 27 29  0     0  0            999 V2000
    0.0000    0.0000    0.0000 N   0  0  0  0  0  3           0  0  0
    0.0000    0.0000    0.0000 C   0  0  0  0  0  4           0  0  0
    0.0000    0.0000    0.0000 C   0  0  0  0  0  4           0  0  0
    0.0000    0.0000    0.0000 C   0  0  0  0  0  4           0  0  0
    0.0000    0.0000    0.0000 C   0  0  0  0  0  4           0  0  0
    0.0000    0.0000    0.0000 C   0  0  0  0  0  4           0  0  0
    0.0000    0.0000    0.0000 N   0  0  0  0  0  3           0  0  0
    0.0000    0.0000    0.0000 C   0  0  0  0  0  4           0  0  0
    0.0000    0.0000    0.0000 N   0  0  0  0  0  3           0  0  0
    0.0000    0.0000    0.0000 C   0  0  0  0  0  4           0  0  0
    0.0000    0.0000    0.0000 N   0  0  0  0  0  3           0  0  0
    0.0000    0.0000    0.0000 C   0  0  0  0  0  4           0  0  0
    0.0000    0.0000    0.0000 N   0  0  0  0  0  3           0  0  0
    0.0000    0.0000    0.0000 O   0  0  0  0  0  2           0  0  0
    0.0000    0.0000    0.0000 C   0  0  0  0  0  4           0  0  0
    0.0000    0.0000    0.0000 O   0  0  0  0  0  2           0  0  0
    0.0000    0.0000    0.0000 C   0  0  0  0  0  4           0  0  0
    0.0000    0.0000    0.0000 C   0  0  0  0  0  4           0  0  0
    0.0000    0.0000    0.0000 C   0  0  0  0  0  4           0  0  0
    0.0000    0.0000    0.0000 C   0  0  0  0  0  4           0  0  0
    0.0000    0.0000    0.0000 C   0  0  0  0  0  4           0  0  0
    0.0000    0.0000    0.0000 C   0  0  0  0  0  4           0  0  0
    0.0000    0.0000    0.0000 C   0  0  0  0  0  4           0  0  0
    0.0000    0.0000    0.0000 N   0  0  0  0  0  3           0  0  0
    0.0000    0.0000    0.0000 C   0  0  0  0  0  4           0  0  0
    0.0000    0.0000    0.0000 C   0  0  0  0  0  4           0  0  0
    0.0000    0.0000    0.0000 C   0  0  0  0  0  4           0  0  0
  1  2  3  0     0  0
  2  3  1  0     0  0
  3  4  1  0     0  0
  4  5  2  0     0  0
  5  6  1  0     0  0
  6  7  1  0     0  0
  7  8  1  0     0  0
  8  9  2  0     0  0
  9 10  1  0     0  0
 10 11  1  0     0  0
 10 12  2  0     0  0
 12 13  1  0     0  0
 13 14  2  0     0  0
 12 15  1  0     0  0
 15 16  1  0     0  0
 16 17  1  0     0  0
 17 18  1  0     0  0
 18 19  1  0     0  0
 19 20  1  0     0  0
 20 21  1  0     0  0
 21 22  1  0     0  0
 18 23  1  0     0  0
 22 23  1  0     0  0
  8 24  1  0     0  0
 15 24  2  0     0  0
  6 25  2  0     0  0
 25 26  1  0     0  0
  4 27  1  0     0  0
 26 27  2  0     0  0
M  END
> <Compound >
2

> <canonical_smiles>
N#CCC1=CC(NC2=NC(N)=C(N=O)C(OCC3CCCCC3)=N2)=CC=C1

> <standard_type>
pIC50

> <standard_units>
nM

> <standard_relation>
=

> <actual_activity_value>
7.481486060122112

> <predicted_activity_value>
7.527243550682788

> <Publication ID>
nan

$$$$
2
  CDPL    08252113263D 1   1.00000     0.00000

 29 31  0     0  0            999 V2000
    0.0000    0.0000    0.0000 N   0  0  0  0  0  3           0  0  0
    0.0000    0.0000    0.0000 C   0  0  0  0  0  4           0  0  0
    0.0000    0.0000    0.0000 C   0  0  0  0  0  4           0  0  0
    0.0000    0.0000    0.0000 C   0  0  0  0  0  4           0  0  0
    0.0000    0.0000    0.0000 H   0  0  0  0  0  1           0  0  0
    0.0000    0.0000    0.0000 O   0  0  0  0  0  2           0  0  0
    0.0000    0.0000    0.0000 C   0  0  0  0  0  4           0  0  0
    0.0000    0.0000    0.0000 O   0  0  0  0  0  2           0  0  0
    0.0000    0.0000    0.0000 C   0  0  0  0  0  4           0  0  0
    0.0000    0.0000    0.0000 C   0  0  0  0  0  4           0  0  0
    0.0000    0.0000    0.0000 C   0  0  0  0  0  4           0  0  0
    0.0000    0.0000    0.0000 C   0  0  0  0  0  4           0  0  0
    0.0000    0.0000    0.0000 C   0  0  0  0  0  4           0  0  0
    0.0000    0.0000    0.0000 C   0  0  0  0  0  4           0  0  0
    0.0000    0.0000    0.0000 C   0  0  0  0  0  4           0  0  0
    0.0000    0.0000    0.0000 N   0  0  0  0  0  3           0  0  0
    0.0000    0.0000    0.0000 C   0  0  0  0  0  4           0  0  0
    0.0000    0.0000    0.0000 N   0  0  0  0  0  3           0  0  0
    0.0000    0.0000    0.0000 C   0  0  0  0  0  4           0  0  0
    0.0000    0.0000    0.0000 C   0  0  0  0  0  4           0  0  0
    0.0000    0.0000    0.0000 C   0  0  0  0  0  4           0  0  0
    0.0000    0.0000    0.0000 C   0  0  0  0  0  4           0  0  0
    0.0000    0.0000    0.0000 S   0  0  0  0  0  6           0  0  0
    0.0000    0.0000    0.0000 O   0  0  0  0  0  2           0  0  0
    0.0000    0.0000    0.0000 N   0  0  0  0  0  3           0  0  0
    0.0000    0.0000    0.0000 O   0  0  0  0  0  2           0  0  0
    0.0000    0.0000    0.0000 C   0  0  0  0  0  4           0  0  0
    0.0000    0.0000    0.0000 C   0  0  0  0  0  4           0  0  0
    0.0000    0.0000    0.0000 N   0  0  0  0  0  3           0  0  0
  1  2  1  0     0  0
  2  3  2  0     0  0
  3  4  1  0     0  0
  4  5  1  0     0  0
  4  6  2  0     0  0
  3  7  1  0     0  0
  7  8  1  0     0  0
  8  9  1  0     0  0
  9 10  1  0     0  0
 10 11  1  0     0  0
 11 12  1  0     0  0
 12 13  1  0     0  0
 13 14  1  0     0  0
 10 15  1  0     0  0
 14 15  1  0     0  0
  7 16  2  0     0  0
 16 17  1  0     0  0
 17 18  1  0     0  0
 18 19  1  0     0  0
 19 20  2  0     0  0
 20 21  1  0     0  0
 21 22  2  0     0  0
 22 23  1  0     0  0
 23 24  2  0     0  0
 23 25  1  0     0  0
 23 26  2  0     0  0
 22 27  1  0     0  0
 19 28  1  0     0  0
 27 28  2  0     0  0
  2 29  1  0     0  0
 17 29  2  0     0  0
M  END
> <Compound >
3

> <canonical_smiles>
NC1=C(C([H])=O)C(OCC2CCCCC2)=NC(NC3=CC=C(S(=O)(N)=O)C=C3)=N1

> <standard_type>
pIC50

> <standard_units>
nM

> <standard_relation>
=

> <actual_activity_value>
7.309803919971486

> <predicted_activity_value>
7.346787486224656

> <Publication ID>
nan

$$$$
3
  CDPL    08252113263D 1   1.00000     0.00000

 23 24  0     0  0            999 V2000
    0.0000    0.0000    0.0000 C   0  0  0  0  0  4           0  0  0
    0.0000    0.0000    0.0000 C   0  0  0  0  0  4           0  0  0
    0.0000    0.0000    0.0000 O   0  0  0  0  0  2           0  0  0
    0.0000    0.0000    0.0000 C   0  0  0  0  0  4           0  0  0
    0.0000    0.0000    0.0000 N   0  0  0  0  0  3           0  0  0
    0.0000    0.0000    0.0000 C   0  0  0  0  0  4           0  0  0
    0.0000    0.0000    0.0000 N   0  0  0  0  0  3           0  0  0
    0.0000    0.0000    0.0000 C   0  0  0  0  0  4           0  0  0
    0.0000    0.0000    0.0000 C   0  0  0  0  0  4           0  0  0
    0.0000    0.0000    0.0000 C   0  0  0  0  0  4           0  0  0
    0.0000    0.0000    0.0000 C   0  0  0  0  0  4           0  0  0
    0.0000    0.0000    0.0000 S   0  0  0  0  0  6           0  0  0
    0.0000    0.0000    0.0000 O   0  0  0  0  0  2           0  0  0
    0.0000    0.0000    0.0000 N   0  0  0  0  0  3           0  0  0
    0.0000    0.0000    0.0000 O   0  0  0  0  0  2           0  0  0
    0.0000    0.0000    0.0000 C   0  0  0  0  0  4           0  0  0
    0.0000    0.0000    0.0000 C   0  0  0  0  0  4           0  0  0
    0.0000    0.0000    0.0000 N   0  0  0  0  0  3           0  0  0
    0.0000    0.0000    0.0000 C   0  0  0  0  0  4           0  0  0
    0.0000    0.0000    0.0000 N   0  0  0  0  0  3           0  0  0
    0.0000    0.0000    0.0000 C   0  0  0  0  0  4           0  0  0
    0.0000    0.0000    0.0000 N   0  0  0  0  0  3           0  0  0
    0.0000    0.0000    0.0000 O   0  0  0  0  0  2           0  0  0
  1  2  1  0     0  0
  2  3  1  0     0  0
  3  4  1  0     0  0
  4  5  2  0     0  0
  5  6  1  0     0  0
  6  7  1  0     0  0
  7  8  1  0     0  0
  8  9  2  0     0  0
  9 10  1  0     0  0
 10 11  2  0     0  0
 11 12  1  0     0  0
 12 13  2  0     0  0
 12 14  1  0     0  0
 12 15  2  0     0  0
 11 16  1  0     0  0
  8 17  1  0     0  0
 16 17  2  0     0  0
  6 18  2  0     0  0
 18 19  1  0     0  0
 19 20  1  0     0  0
  4 21  1  0     0  0
 19 21  2  0     0  0
 21 22  1  0     0  0
 22 23  2  0     0  0
M  END
> <Compound >
4

> <canonical_smiles>
CCOC1=NC(NC2=CC=C(S(=O)(N)=O)C=C2)=NC(N)=C1N=O

> <standard_type>
pIC50

> <standard_units>
nM

> <standard_relation>
=

> <actual_activity_value>
7.031517051446065

> <predicted_activity_value>
6.953114809162289

> <Publication ID>
nan

$$$$
4
  CDPL    08252113263D 1   1.00000     0.00000

 30 32  0     0  0            999 V2000
    0.0000    0.0000    0.0000 N   0  0  0  0  0  3           0  0  0
    0.0000    0.0000    0.0000 C   0  0  0  0  0  4           0  0  0
    0.0000    0.0000    0.0000 C   0  0  0  0  0  4           0  0  0
    0.0000    0.0000    0.0000 C   0  0  0  0  0  4           0  0  0
    0.0000    0.0000    0.0000 C   0  0  0  0  0  4           0  0  0
    0.0000    0.0000    0.0000 N   0  0  0  0  0  3           0  0  0
    0.0000    0.0000    0.0000 O   0  0  0  0  0  2           0  0  0
    0.0000    0.0000    0.0000 C   0  0  0  0  0  4           0  0  0
    0.0000    0.0000    0.0000 O   0  0  0  0  0  2           0  0  0
    0.0000    0.0000    0.0000 C   0  0  0  0  0  4           0  0  0
    0.0000    0.0000    0.0000 C   0  0  0  0  0  4           0  0  0
    0.0000    0.0000    0.0000 C   0  0  0  0  0  4           0  0  0
    0.0000    0.0000    0.0000 C   0  0  0  0  0  4           0  0  0
    0.0000    0.0000    0.0000 C   0  0  0  0  0  4           0  0  0
    0.0000    0.0000    0.0000 C   0  0  0  0  0  4           0  0  0
    0.0000    0.0000    0.0000 C   0  0  0  0  0  4           0  0  0
    0.0000    0.0000    0.0000 N   0  0  0  0  0  3           0  0  0
    0.0000    0.0000    0.0000 C   0  0  0  0  0  4           0  0  0
    0.0000    0.0000    0.0000 N   0  0  0  0  0  3           0  0  0
    0.0000    0.0000    0.0000 C   0  0  0  0  0  4           0  0  0
    0.0000    0.0000    0.0000 C   0  0  0  0  0  4           0  0  0
    0.0000    0.0000    0.0000 C   0  0  0  0  0  4           0  0  0
    0.0000    0.0000    0.0000 C   0  0  0  0  0  4           0  0  0
    0.0000    0.0000    0.0000 S   0  0  0  0  0  6           0  0  0
    0.0000    0.0000    0.0000 O   0  0  0  0  0  2           0  0  0
    0.0000    0.0000    0.0000 N   0  0  0  0  0  3           0  0  0
    0.0000    0.0000    0.0000 O   0  0  0  0  0  2           0  0  0
    0.0000    0.0000    0.0000 C   0  0  0  0  0  4           0  0  0
    0.0000    0.0000    0.0000 C   0  0  0  0  0  4           0  0  0
    0.0000    0.0000    0.0000 N   0  0  0  0  0  3           0  0  0
  1  2  1  0     0  0
  2  3  2  0     0  0
  3  4  1  0     0  0
  4  5  1  0     0  0
  4  6  2  0     0  0
  6  7  1  0     0  0
  3  8  1  0     0  0
  8  9  1  0     0  0
  9 10  1  0     0  0
 10 11  1  0     0  0
 11 12  1  0     0  0
 12 13  1  0     0  0
 13 14  1  0     0  0
 14 15  1  0     0  0
 11 16  1  0     0  0
 15 16  1  0     0  0
  8 17  2  0     0  0
 17 18  1  0     0  0
 18 19  1  0     0  0
 19 20  1  0     0  0
 20 21  2  0     0  0
 21 22  1  0     0  0
 22 23  2  0     0  0
 23 24  1  0     0  0
 24 25  2  0     0  0
 24 26  1  0     0  0
 24 27  2  0     0  0
 23 28  1  0     0  0
 20 29  1  0     0  0
 28 29  2  0     0  0
  2 30  1  0     0  0
 18 30  2  0     0  0
M  END
> <Compound >
5

> <canonical_smiles>
NC1=C(/C(C)=N/O)C(OCC2CCCCC2)=NC(NC3=CC=C(S(=O)(N)=O)C=C3)=N1

> <standard_type>
pIC50

> <standard_units>
nM

> <standard_relation>
=

> <actual_activity_value>
6.931814138253839

> <predicted_activity_value>
6.724919101543142

> <Publication ID>
nan

$$$$
5
  CDPL    08252113263D 1   1.00000     0.00000

 31 33  0     0  0            999 V2000
    0.0000    0.0000    0.0000 N   0  0  0  0  0  3           0  0  0
    0.0000    0.0000    0.0000 C   0  0  0  0  0  4           0  0  0
    0.0000    0.0000    0.0000 C   0  0  0  0  0  4           0  0  0
    0.0000    0.0000    0.0000 N   0  0  0  0  0  3           0  0  0
    0.0000    0.0000    0.0000 O   0  0  0  0  0  2           0  0  0
    0.0000    0.0000    0.0000 C   0  0  0  0  0  4           0  0  0
    0.0000    0.0000    0.0000 O   0  0  0  0  0  2           0  0  0
    0.0000    0.0000    0.0000 C   0  0  0  0  0  4           0  0  0
    0.0000    0.0000    0.0000 C   0  0  0  0  0  4           0  0  0
    0.0000    0.0000    0.0000 C   0  0  0  0  0  4           0  0  0
    0.0000    0.0000    0.0000 C   0  0  0  0  0  4           0  0  0
    0.0000    0.0000    0.0000 C   0  0  0  0  0  4           0  0  0
    0.0000    0.0000    0.0000 C   0  0  0  0  0  4           0  0  0
    0.0000    0.0000    0.0000 C   0  0  0  0  0  4           0  0  0
    0.0000    0.0000    0.0000 N   0  0  0  0  0  3           0  0  0
    0.0000    0.0000    0.0000 C   0  0  0  0  0  4           0  0  0
    0.0000    0.0000    0.0000 N   0  0  0  0  0  3           0  0  0
    0.0000    0.0000    0.0000 C   0  0  0  0  0  4           0  0  0
    0.0000    0.0000    0.0000 C   0  0  0  0  0  4           0  0  0
    0.0000    0.0000    0.0000 C   0  0  0  0  0  4           0  0  0
    0.0000    0.0000    0.0000 C   0  0  0  0  0  4           0  0  0
    0.0000    0.0000    0.0000 C   0  0  0  0  0  4           0  0  0
    0.0000    0.0000    0.0000 N   0  0  0  0  0  3           0  0  0
    0.0000    0.0000    0.0000 C   0  0  0  0  0  4           0  0  0
    0.0000    0.0000    0.0000 C   0  0  0  0  0  4           0  0  0
    0.0000    0.0000    0.0000 C   0  0  0  0  0  4           0  0  0
    0.0000    0.0000    0.0000 C   0  0  0  0  0  4           0  0  0
    0.0000    0.0000    0.0000 O   0  0  0  0  0  2           0  0  0
    0.0000    0.0000    0.0000 C   0  0  0  0  0  4           0  0  0
    0.0000    0.0000    0.0000 C   0  0  0  0  0  4           0  0  0
    0.0000    0.0000    0.0000 N   0  0  0  0  0  3           0  0  0
  1  2  1  0     0  0
  2  3  2  0     0  0
  3  4  1  0     0  0
  4  5  2  0     0  0
  3  6  1  0     0  0
  6  7  1  0     0  0
  7  8  1  0     0  0
  8  9  1  0     0  0
  9 10  1  0     0  0
 10 11  1  0     0  0
 11 12  1  0     0  0
 12 13  1  0     0  0
  9 14  1  0     0  0
 13 14  1  0     0  0
  6 15  2  0     0  0
 15 16  1  0     0  0
 16 17  1  0     0  0
 17 18  1  0     0  0
 18 19  2  0     0  0
 19 20  1  0     0  0
 20 21  2  0     0  0
 21 22  1  0     0  0
 22 23  1  0     0  0
 23 24  1  0     0  0
 24 25  1  0     0  0
 23 26  1  0     0  0
 26 27  1  0     0  0
 22 28  2  0     0  0
 21 29  1  0     0  0
 18 30  1  0     0  0
 29 30  2  0     0  0
  2 31  1  0     0  0
 16 31  2  0     0  0
M  END
> <Compound >
6

> <canonical_smiles>
NC1=C(N=O)C(OCC2CCCCC2)=NC(NC3=CC=C(C(N(CC)CC)=O)C=C3)=N1

> <standard_type>
pIC50

> <standard_units>
nM

> <standard_relation>
=

> <actual_activity_value>
6.698970004336019

> <predicted_activity_value>
6.604673606930649

> <Publication ID>
nan

$$$$
6
  CDPL    08252113263D 1   1.00000     0.00000

 26 28  0     0  0            999 V2000
    0.0000    0.0000    0.0000 N   0  0  0  0  0  3           0  0  0
    0.0000    0.0000    0.0000 C   0  0  0  0  0  4           0  0  0
    0.0000    0.0000    0.0000 C   0  0  0  0  0  4           0  0  0
    0.0000    0.0000    0.0000 N   0  0  0  0  0  3           0  0  0
    0.0000    0.0000    0.0000 O   0  0  0  0  0  2           0  0  0
    0.0000    0.0000    0.0000 C   0  0  0  0  0  4           0  0  0
    0.0000    0.0000    0.0000 O   0  0  0  0  0  2           0  0  0
    0.0000    0.0000    0.0000 C   0  0  0  0  0  4           0  0  0
    0.0000    0.0000    0.0000 C   0  0  0  0  0  4           0  0  0
    0.0000    0.0000    0.0000 C   0  0  0  0  0  4           0  0  0
    0.0000    0.0000    0.0000 C   0  0  0  0  0  4           0  0  0
    0.0000    0.0000    0.0000 C   0  0  0  0  0  4           0  0  0
    0.0000    0.0000    0.0000 C   0  0  0  0  0  4           0  0  0
    0.0000    0.0000    0.0000 C   0  0  0  0  0  4           0  0  0
    0.0000    0.0000    0.0000 N   0  0  0  0  0  3           0  0  0
    0.0000    0.0000    0.0000 C   0  0  0  0  0  4           0  0  0
    0.0000    0.0000    0.0000 N   0  0  0  0  0  3           0  0  0
    0.0000    0.0000    0.0000 C   0  0  0  0  0  4           0  0  0
    0.0000    0.0000    0.0000 C   0  0  0  0  0  4           0  0  0
    0.0000    0.0000    0.0000 C   0  0  0  0  0  4           0  0  0
    0.0000    0.0000    0.0000 C   0  0  0  0  0  4           0  0  0
    0.0000    0.0000    0.0000 C   0  0  0  0  0  4           0  0  0
    0.0000    0.0000    0.0000 S   0  0  0  0  0  2           0  0  0
    0.0000    0.0000    0.0000 C   0  0  0  0  0  4           0  0  0
    0.0000    0.0000    0.0000 C   0  0  0  0  0  4           0  0  0
    0.0000    0.0000    0.0000 N   0  0  0  0  0  3           0  0  0
  1  2  1  0     0  0
  2  3  2  0     0  0
  3  4  1  0     0  0
  4  5  2  0     0  0
  3  6  1  0     0  0
  6  7  1  0     0  0
  7  8  1  0     0  0
  8  9  1  0     0  0
  9 10  1  0     0  0
 10 11  1  0     0  0
 11 12  1  0     0  0
 12 13  1  0     0  0
  9 14  1  0     0  0
 13 14  1  0     0  0
  6 15  2  0     0  0
 15 16  1  0     0  0
 16 17  1  0     0  0
 17 18  1  0     0  0
 18 19  2  0     0  0
 19 20  1  0     0  0
 20 21  2  0     0  0
 21 22  1  0     0  0
 22 23  1  0     0  0
 23 24  1  0     0  0
 18 25  1  0     0  0
 22 25  2  0     0  0
  2 26  1  0     0  0
 16 26  2  0     0  0
M  END
> <Compound >
7

> <canonical_smiles>
NC1=C(N=O)C(OCC2CCCCC2)=NC(NC3=CC=CC(SC)=C3)=N1

> <standard_type>
pIC50

> <standard_units>
nM

> <standard_relation>
=

> <actual_activity_value>
6.3979400086720375

> <predicted_activity_value>
5.9899545873639015

> <Publication ID>
nan

$$$$
7
  CDPL    08252113263D 1   1.00000     0.00000

 28 30  0     0  0            999 V2000
    0.0000    0.0000    0.0000 N   0  0  0  0  0  3           0  0  0
    0.0000    0.0000    0.0000 C   0  0  0  0  0  4           0  0  0
    0.0000    0.0000    0.0000 C   0  0  0  0  0  4           0  0  0
    0.0000    0.0000    0.0000 C   0  0  0  0  0  4           0  0  0
    0.0000    0.0000    0.0000 H   0  0  0  0  0  1           0  0  0
    0.0000    0.0000    0.0000 O   0  0  0  0  0  2           0  0  0
    0.0000    0.0000    0.0000 C   0  0  0  0  0  4           0  0  0
    0.0000    0.0000    0.0000 O   0  0  0  0  0  2           0  0  0
    0.0000    0.0000    0.0000 C   0  0  0  0  0  4           0  0  0
    0.0000    0.0000    0.0000 C   0  0  0  0  0  4           0  0  0
    0.0000    0.0000    0.0000 C   0  0  0  0  0  4           0  0  0
    0.0000    0.0000    0.0000 C   0  0  0  0  0  4           0  0  0
    0.0000    0.0000    0.0000 C   0  0  0  0  0  4           0  0  0
    0.0000    0.0000    0.0000 C   0  0  0  0  0  4           0  0  0
    0.0000    0.0000    0.0000 C   0  0  0  0  0  4           0  0  0
    0.0000    0.0000    0.0000 N   0  0  0  0  0  3           0  0  0
    0.0000    0.0000    0.0000 C   0  0  0  0  0  4           0  0  0
    0.0000    0.0000    0.0000 N   0  0  0  0  0  3           0  0  0
    0.0000    0.0000    0.0000 C   0  0  0  0  0  4           0  0  0
    0.0000    0.0000    0.0000 C   0  0  0  0  0  4           0  0  0
    0.0000    0.0000    0.0000 C   0  0  0  0  0  4           0  0  0
    0.0000    0.0000    0.0000 C   0  0  0  0  0  4           0  0  0
    0.0000    0.0000    0.0000 C   0  0  0  0  0  4           0  0  0
    0.0000    0.0000    0.0000 O   0  0  0  0  0  2           0  0  0
    0.0000    0.0000    0.0000 O   0  0  0  0  0  2           0  0  0
    0.0000    0.0000    0.0000 C   0  0  0  0  0  4           0  0  0
    0.0000    0.0000    0.0000 C   0  0  0  0  0  4           0  0  0
    0.0000    0.0000    0.0000 N   0  0  0  0  0  3           0  0  0
  1  2  1  0     0  0
  2  3  2  0     0  0
  3  4  1  0     0  0
  4  5  1  0     0  0
  4  6  2  0     0  0
  3  7  1  0     0  0
  7  8  1  0     0  0
  8  9  1  0     0  0
  9 10  1  0     0  0
 10 11  1  0     0  0
 11 12  1  0     0  0
 12 13  1  0     0  0
 13 14  1  0     0  0
 10 15  1  0     0  0
 14 15  1  0     0  0
  7 16  2  0     0  0
 16 17  1  0     0  0
 17 18  1  0     0  0
 18 19  1  0     0  0
 19 20  2  0     0  0
 20 21  1  0     0  0
 21 22  2  0     0  0
 22 23  1  0     0  0
 23 24  1  0     0  0
 23 25  2  0     0  0
 22 26  1  0     0  0
 19 27  1  0     0  0
 26 27  2  0     0  0
  2 28  1  0     0  0
 17 28  2  0     0  0
M  END
> <Compound >
8

> <canonical_smiles>
NC1=C(C([H])=O)C(OCC2CCCCC2)=NC(NC3=CC=C(C(O)=O)C=C3)=N1

> <standard_type>
pIC50

> <standard_units>
nM

> <standard_relation>
=

> <actual_activity_value>
6.214670164989233

> <predicted_activity_value>
6.3810110796350665

> <Publication ID>
nan

$$$$
8
  CDPL    08252113263D 1   1.00000     0.00000

 23 24  0     0  0            999 V2000
    0.0000    0.0000    0.0000 C   0  0  0  0  0  4           0  0  0
    0.0000    0.0000    0.0000 C   0  0  0  0  0  4           0  0  0
    0.0000    0.0000    0.0000 C   0  0  0  0  0  4           0  0  0
    0.0000    0.0000    0.0000 O   0  0  0  0  0  2           0  0  0
    0.0000    0.0000    0.0000 C   0  0  0  0  0  4           0  0  0
    0.0000    0.0000    0.0000 N   0  0  0  0  0  3           0  0  0
    0.0000    0.0000    0.0000 C   0  0  0  0  0  4           0  0  0
    0.0000    0.0000    0.0000 N   0  0  0  0  0  3           0  0  0
    0.0000    0.0000    0.0000 C   0  0  0  0  0  4           0  0  0
    0.0000    0.0000    0.0000 C   0  0  0  0  0  4           0  0  0
    0.0000    0.0000    0.0000 C   0  0  0  0  0  4           0  0  0
    0.0000    0.0000    0.0000 C   0  0  0  0  0  4           0  0  0
    0.0000    0.0000    0.0000 O   0  0  0  0  0  2           0  0  0
    0.0000    0.0000    0.0000 C   0  0  0  0  0  4           0  0  0
    0.0000    0.0000    0.0000 C   0  0  0  0  0  4           0  0  0
    0.0000    0.0000    0.0000 C   0  0  0  0  0  4           0  0  0
    0.0000    0.0000    0.0000 N   0  0  0  0  0  3           0  0  0
    0.0000    0.0000    0.0000 C   0  0  0  0  0  4           0  0  0
    0.0000    0.0000    0.0000 N   0  0  0  0  0  3           0  0  0
    0.0000    0.0000    0.0000 C   0  0  0  0  0  4           0  0  0
    0.0000    0.0000    0.0000 C   0  0  0  0  0  4           0  0  0
    0.0000    0.0000    0.0000 H   0  0  0  0  0  1           0  0  0
    0.0000    0.0000    0.0000 O   0  0  0  0  0  2           0  0  0
  1  2  1  0     0  0
  2  3  1  0     0  0
  2  4  1  0     0  0
  4  5  1  0     0  0
  5  6  2  0     0  0
  6  7  1  0     0  0
  7  8  1  0     0  0
  8  9  1  0     0  0
  9 10  2  0     0  0
 10 11  1  0     0  0
 11 12  2  0     0  0
 12 13  1  0     0  0
 13 14  1  0     0  0
 12 15  1  0     0  0
  9 16  1  0     0  0
 15 16  2  0     0  0
  7 17  2  0     0  0
 17 18  1  0     0  0
 18 19  1  0     0  0
  5 20  1  0     0  0
 18 20  2  0     0  0
 20 21  1  0     0  0
 21 22  1  0     0  0
 21 23  2  0     0  0
M  END
> <Compound >
9

> <canonical_smiles>
CC(C)OC1=NC(NC2=CC=C(OC)C=C2)=NC(N)=C1C([H])=O

> <standard_type>
pIC50

> <standard_units>
nM

> <standard_relation>
=

> <actual_activity_value>
5.7447274948966935

> <predicted_activity_value>
5.541815564429737

> <Publication ID>
nan

$$$$
9
  CDPL    08252113263D 1   1.00000     0.00000

 18 19  0     0  0            999 V2000
    0.0000    0.0000    0.0000 N   0  0  0  0  0  3           0  0  0
    0.0000    0.0000    0.0000 C   0  0  0  0  0  4           0  0  0
    0.0000    0.0000    0.0000 N   0  0  0  0  0  3           0  0  0
    0.0000    0.0000    0.0000 C   0  0  0  0  0  4           0  0  0
    0.0000    0.0000    0.0000 N   0  0  0  0  0  3           0  0  0
    0.0000    0.0000    0.0000 C   0  0  0  0  0  4           0  0  0
    0.0000    0.0000    0.0000 N   0  0  0  0  0  3           0  0  0
    0.0000    0.0000    0.0000 C   0  0  0  0  0  4           0  0  0
    0.0000    0.0000    0.0000 C   0  0  0  0  0  4           0  0  0
    0.0000    0.0000    0.0000 O   0  0  0  0  0  2           0  0  0
    0.0000    0.0000    0.0000 C   0  0  0  0  0  4           0  0  0
    0.0000    0.0000    0.0000 C   0  0  0  0  0  4           0  0  0
    0.0000    0.0000    0.0000 C   0  0  0  0  0  4           0  0  0
    0.0000    0.0000    0.0000 C   0  0  0  0  0  4           0  0  0
    0.0000    0.0000    0.0000 C   0  0  0  0  0  4           0  0  0
    0.0000    0.0000    0.0000 C   0  0  0  0  0  4           0  0  0
    0.0000    0.0000    0.0000 C   0  0  0  0  0  4           0  0  0
    0.0000    0.0000    0.0000 N   0  0  0  0  0  3           0  0  0
  1  2  1  0     0  0
  2  3  2  0     0  0
  3  4  1  0     0  0
  4  5  1  0     0  0
  4  6  2  0     0  0
  6  7  1  0     0  0
  7  8  2  0     0  0
  6  9  1  0     0  0
  9 10  1  0     0  0
 10 11  1  0     0  0
 11 12  1  0     0  0
 12 13  1  0     0  0
 13 14  1  0     0  0
 14 15  1  0     0  0
 15 16  1  0     0  0
 12 17  1  0     0  0
 16 17  1  0     0  0
  2 18  1  0     0  0
  9 18  2  0     0  0
M  END
> <Compound >
10

> <canonical_smiles>
NC1=NC(N)=C(N=C)C(OCC2CCCCC2)=N1

> <standard_type>
pIC50

> <standard_units>
nM

> <standard_relation>
=

> <actual_activity_value>
5.657577319177793

> <predicted_activity_value>
6.017457417697057

> <Publication ID>
nan

$$$$
10
  CDPL    08252113263D 1   1.00000     0.00000

 26 28  0     0  0            999 V2000
    0.0000    0.0000    0.0000 N   0  0  0  0  0  3           0  0  0
    0.0000    0.0000    0.0000 C   0  0  0  0  0  4           0  0  0
    0.0000    0.0000    0.0000 C   0  0  0  0  0  4           0  0  0
    0.0000    0.0000    0.0000 C   0  0  0  0  0  4           0  0  0
    0.0000    0.0000    0.0000 O   0  0  0  0  0  2           0  0  0
    0.0000    0.0000    0.0000 C   0  0  0  0  0  4           0  0  0
    0.0000    0.0000    0.0000 C   0  0  0  0  0  4           0  0  0
    0.0000    0.0000    0.0000 C   0  0  0  0  0  4           0  0  0
    0.0000    0.0000    0.0000 C   0  0  0  0  0  4           0  0  0
    0.0000    0.0000    0.0000 C   0  0  0  0  0  4           0  0  0
    0.0000    0.0000    0.0000 C   0  0  0  0  0  4           0  0  0
    0.0000    0.0000    0.0000 C   0  0  0  0  0  4           0  0  0
    0.0000    0.0000    0.0000 N   0  0  0  0  0  3           0  0  0
    0.0000    0.0000    0.0000 C   0  0  0  0  0  4           0  0  0
    0.0000    0.0000    0.0000 N   0  0  0  0  0  3           0  0  0
    0.0000    0.0000    0.0000 C   0  0  0  0  0  4           0  0  0
    0.0000    0.0000    0.0000 C   0  0  0  0  0  4           0  0  0
    0.0000    0.0000    0.0000 C   0  0  0  0  0  4           0  0  0
    0.0000    0.0000    0.0000 C   0  0  0  0  0  4           0  0  0
    0.0000    0.0000    0.0000 S   0  0  0  0  0  6           0  0  0
    0.0000    0.0000    0.0000 O   0  0  0  0  0  2           0  0  0
    0.0000    0.0000    0.0000 N   0  0  0  0  0  3           0  0  0
    0.0000    0.0000    0.0000 O   0  0  0  0  0  2           0  0  0
    0.0000    0.0000    0.0000 C   0  0  0  0  0  4           0  0  0
    0.0000    0.0000    0.0000 C   0  0  0  0  0  4           0  0  0
    0.0000    0.0000    0.0000 N   0  0  0  0  0  3           0  0  0
  1  2  1  0     0  0
  2  3  2  0     0  0
  3  4  1  0     0  0
  4  5  1  0     0  0
  5  6  1  0     0  0
  6  7  1  0     0  0
  7  8  1  0     0  0
  8  9  1  0     0  0
  9 10  1  0     0  0
 10 11  1  0     0  0
  7 12  1  0     0  0
 11 12  1  0     0  0
  4 13  2  0     0  0
 13 14  1  0     0  0
 14 15  1  0     0  0
 15 16  1  0     0  0
 16 17  2  0     0  0
 17 18  1  0     0  0
 18 19  2  0     0  0
 19 20  1  0     0  0
 20 21  2  0     0  0
 20 22  1  0     0  0
 20 23  2  0     0  0
 19 24  1  0     0  0
 16 25  1  0     0  0
 24 25  2  0     0  0
  2 26  1  0     0  0
 14 26  2  0     0  0
M  END
> <Compound >
11

> <canonical_smiles>
NC1=CC(OCC2CCCCC2)=NC(NC3=CC=C(S(=O)(N)=O)C=C3)=N1

> <standard_type>
pIC50

> <standard_units>
nM

> <standard_relation>
=

> <actual_activity_value>
5.533132379645891

> <predicted_activity_value>
5.566486179335457

> <Publication ID>
nan

$$$$
11
  CDPL    08252113263D 1   1.00000     0.00000

 28 30  0     0  0            999 V2000
    0.0000    0.0000    0.0000 N   0  0  0  0  0  3           0  0  0
    0.0000    0.0000    0.0000 C   0  0  0  0  0  4           0  0  0
    0.0000    0.0000    0.0000 C   0  0  0  0  0  4           0  0  0
    0.0000    0.0000    0.0000 C   0  0  0  0  0  4           0  0  0
    0.0000    0.0000    0.0000 H   0  0  0  0  0  1           0  0  0
    0.0000    0.0000    0.0000 N   0  0  0  0  0  3           0  0  0
    0.0000    0.0000    0.0000 O   0  0  0  0  0  2           0  0  0
    0.0000    0.0000    0.0000 C   0  0  0  0  0  4           0  0  0
    0.0000    0.0000    0.0000 O   0  0  0  0  0  2           0  0  0
    0.0000    0.0000    0.0000 C   0  0  0  0  0  4           0  0  0
    0.0000    0.0000    0.0000 C   0  0  0  0  0  4           0  0  0
    0.0000    0.0000    0.0000 C   0  0  0  0  0  4           0  0  0
    0.0000    0.0000    0.0000 C   0  0  0  0  0  4           0  0  0
    0.0000    0.0000    0.0000 C   0  0  0  0  0  4           0  0  0
    0.0000    0.0000    0.0000 C   0  0  0  0  0  4           0  0  0
    0.0000    0.0000    0.0000 C   0  0  0  0  0  4           0  0  0
    0.0000    0.0000    0.0000 N   0  0  0  0  0  3           0  0  0
    0.0000    0.0000    0.0000 C   0  0  0  0  0  4           0  0  0
    0.0000    0.0000    0.0000 N   0  0  0  0  0  3           0  0  0
    0.0000    0.0000    0.0000 C   0  0  0  0  0  4           0  0  0
    0.0000    0.0000    0.0000 C   0  0  0  0  0  4           0  0  0
    0.0000    0.0000    0.0000 C   0  0  0  0  0  4           0  0  0
    0.0000    0.0000    0.0000 C   0  0  0  0  0  4           0  0  0
    0.0000    0.0000    0.0000 O   0  0  0  0  0  2           0  0  0
    0.0000    0.0000    0.0000 C   0  0  0  0  0  4           0  0  0
    0.0000    0.0000    0.0000 C   0  0  0  0  0  4           0  0  0
    0.0000    0.0000    0.0000 C   0  0  0  0  0  4           0  0  0
    0.0000    0.0000    0.0000 N   0  0  0  0  0  3           0  0  0
  1  2  1  0     0  0
  2  3  2  0     0  0
  3  4  1  0     0  0
  4  5  1  0     0  0
  4  6  2  0     0  0
  6  7  1  0     0  0
  3  8  1  0     0  0
  8  9  1  0     0  0
  9 10  1  0     0  0
 10 11  1  0     0  0
 11 12  1  0     0  0
 12 13  1  0     0  0
 13 14  1  0     0  0
 14 15  1  0     0  0
 11 16  1  0     0  0
 15 16  1  0     0  0
  8 17  2  0     0  0
 17 18  1  0     0  0
 18 19  1  0     0  0
 19 20  1  0     0  0
 20 21  2  0     0  0
 21 22  1  0     0  0
 22 23  2  0     0  0
 23 24  1  0     0  0
 24 25  1  0     0  0
 23 26  1  0     0  0
 20 27  1  0     0  0
 26 27  2  0     0  0
  2 28  1  0     0  0
 18 28  2  0     0  0
M  END
> <Compound >
12

> <canonical_smiles>
NC1=C(/C([H])=N/O)C(OCC2CCCCC2)=NC(NC3=CC=C(OC)C=C3)=N1

> <standard_type>
pIC50

> <standard_units>
nM

> <standard_relation>
=

> <actual_activity_value>
5.080921907623926

> <predicted_activity_value>
5.6118987984294835

> <Publication ID>
nan

$$$$
12
  CDPL    08252113263D 1   1.00000     0.00000

 25 27  0     0  0            999 V2000
    0.0000    0.0000    0.0000 N   0  0  0  0  0  3           0  0  0
    0.0000    0.0000    0.0000 C   0  0  0  0  0  4           0  0  0
    0.0000    0.0000    0.0000 C   0  0  0  0  0  4           0  0  0
    0.0000    0.0000    0.0000 C   0  0  0  0  0  4           0  0  0
    0.0000    0.0000    0.0000 O   0  0  0  0  0  2           0  0  0
    0.0000    0.0000    0.0000 C   0  0  0  0  0  4           0  0  0
    0.0000    0.0000    0.0000 C   0  0  0  0  0  4           0  0  0
    0.0000    0.0000    0.0000 C   0  0  0  0  0  4           0  0  0
    0.0000    0.0000    0.0000 C   0  0  0  0  0  4           0  0  0
    0.0000    0.0000    0.0000 C   0  0  0  0  0  4           0  0  0
    0.0000    0.0000    0.0000 C   0  0  0  0  0  4           0  0  0
    0.0000    0.0000    0.0000 C   0  0  0  0  0  4           0  0  0
    0.0000    0.0000    0.0000 N   0  0  0  0  0  3           0  0  0
    0.0000    0.0000    0.0000 C   0  0  0  0  0  4           0  0  0
    0.0000    0.0000    0.0000 N   0  0  0  0  0  3           0  0  0
    0.0000    0.0000    0.0000 C   0  0  0  0  0  4           0  0  0
    0.0000    0.0000    0.0000 C   0  0  0  0  0  4           0  0  0
    0.0000    0.0000    0.0000 C   0  0  0  0  0  4           0  0  0
    0.0000    0.0000    0.0000 C   0  0  0  0  0  4           0  0  0
    0.0000    0.0000    0.0000 C   0  0  0  0  0  4           0  0  0
    0.0000    0.0000    0.0000 C   0  0  0  0  0  4           0  0  0
    0.0000    0.0000    0.0000 N   0  0  0  0  0  3           0  0  0
    0.0000    0.0000    0.0000 C   0  0  0  0  0  4           0  0  0
    0.0000    0.0000    0.0000 C   0  0  0  0  0  4           0  0  0
    0.0000    0.0000    0.0000 N   0  0  0  0  0  3           0  0  0
  1  2  1  0     0  0
  2  3  2  0     0  0
  3  4  1  0     0  0
  4  5  1  0     0  0
  5  6  1  0     0  0
  6  7  1  0     0  0
  7  8  1  0     0  0
  8  9  1  0     0  0
  9 10  1  0     0  0
 10 11  1  0     0  0
  7 12  1  0     0  0
 11 12  1  0     0  0
  4 13  2  0     0  0
 13 14  1  0     0  0
 14 15  1  0     0  0
 15 16  1  0     0  0
 16 17  2  0     0  0
 17 18  1  0     0  0
 18 19  2  0     0  0
 19 20  1  0     0  0
 20 21  1  0     0  0
 21 22  3  0     0  0
 19 23  1  0     0  0
 16 24  1  0     0  0
 23 24  2  0     0  0
  2 25  1  0     0  0
 14 25  2  0     0  0
M  END
> <Compound >
13

> <canonical_smiles>
NC1=CC(OCC2CCCCC2)=NC(NC3=CC=C(CC#N)C=C3)=N1

> <standard_type>
pIC50

> <standard_units>
nM

> <standard_relation>
=

> <actual_activity_value>
4.619788758288394

> <predicted_activity_value>
4.517134988077452

> <Publication ID>
nan

$$$$
13
  CDPL    08252113263D 1   1.00000     0.00000

 21 23  0     0  0            999 V2000
    0.0000    0.0000    0.0000 N   0  0  0  0  0  3           0  0  0
    0.0000    0.0000    0.0000 C   0  0  0  0  0  4           0  0  0
    0.0000    0.0000    0.0000 N   0  0  0  0  0  3           0  0  0
    0.0000    0.0000    0.0000 C   0  0  0  0  0  4           0  0  0
    0.0000    0.0000    0.0000 N   0  0  0  0  0  3           0  0  0
    0.0000    0.0000    0.0000 C   0  0  0  0  0  4           0  0  0
    0.0000    0.0000    0.0000 C   0  0  0  0  0  4           0  0  0
    0.0000    0.0000    0.0000 C   0  0  0  0  0  4           0  0  0
    0.0000    0.0000    0.0000 C   0  0  0  0  0  4           0  0  0
    0.0000    0.0000    0.0000 C   0  0  0  0  0  4           0  0  0
    0.0000    0.0000    0.0000 S   0  0  0  0  0  2           0  0  0
    0.0000    0.0000    0.0000 C   0  0  0  0  0  4           0  0  0
    0.0000    0.0000    0.0000 O   0  0  0  0  0  2           0  0  0
    0.0000    0.0000    0.0000 C   0  0  0  0  0  4           0  0  0
    0.0000    0.0000    0.0000 C   0  0  0  0  0  4           0  0  0
    0.0000    0.0000    0.0000 C   0  0  0  0  0  4           0  0  0
    0.0000    0.0000    0.0000 C   0  0  0  0  0  4           0  0  0
    0.0000    0.0000    0.0000 C   0  0  0  0  0  4           0  0  0
    0.0000    0.0000    0.0000 C   0  0  0  0  0  4           0  0  0
    0.0000    0.0000    0.0000 C   0  0  0  0  0  4           0  0  0
    0.0000    0.0000    0.0000 N   0  0  0  0  0  3           0  0  0
  1  2  1  0     0  0
  2  3  2  0     0  0
  3  4  1  0     0  0
  4  5  1  0     0  0
  4  6  2  0     0  0
  6  7  1  0     0  0
  7  8  2  0     0  0
  8  9  1  0     0  0
  9 10  2  0     0  0
  7 11  1  0     0  0
 10 11  1  0     0  0
  6 12  1  0     0  0
 12 13  1  0     0  0
 13 14  1  0     0  0
 14 15  1  0     0  0
 15 16  1  0     0  0
 16 17  1  0     0  0
 17 18  1  0     0  0
 18 19  1  0     0  0
 15 20  1  0     0  0
 19 20  1  0     0  0
  2 21  1  0     0  0
 12 21  2  0     0  0
M  END
> <Compound >
14

> <canonical_smiles>
NC1=NC(N)=C(C2=CC=CS2)C(OCC3CCCCC3)=N1

> <standard_type>
pIC50

> <standard_units>
nM

> <standard_relation>
=

> <actual_activity_value>
4.259637310505756

> <predicted_activity_value>
4.49815642831505

> <Publication ID>
nan

$$$$
14
  CDPL    08252113263D 1   1.00000     0.00000

 18 19  0     0  0            999 V2000
    0.0000    0.0000    0.0000 N   0  0  0  0  0  3           0  0  0
    0.0000    0.0000    0.0000 C   0  0  0  0  0  4           0  0  0
    0.0000    0.0000    0.0000 N   0  0  0  0  0  3           0  0  0
    0.0000    0.0000    0.0000 C   0  0  0  0  0  4           0  0  0
    0.0000    0.0000    0.0000 N   0  0  0  0  0  3           0  0  0
    0.0000    0.0000    0.0000 C   0  0  0  0  0  4           0  0  0
    0.0000    0.0000    0.0000 C   0  0  0  0  0  4           0  0  0
    0.0000    0.0000    0.0000 N   0  0  0  0  0  3           0  0  0
    0.0000    0.0000    0.0000 C   0  0  0  0  0  4           0  0  0
    0.0000    0.0000    0.0000 O   0  0  0  0  0  2           0  0  0
    0.0000    0.0000    0.0000 C   0  0  0  0  0  4           0  0  0
    0.0000    0.0000    0.0000 C   0  0  0  0  0  4           0  0  0
    0.0000    0.0000    0.0000 C   0  0  0  0  0  4           0  0  0
    0.0000    0.0000    0.0000 C   0  0  0  0  0  4           0  0  0
    0.0000    0.0000    0.0000 C   0  0  0  0  0  4           0  0  0
    0.0000    0.0000    0.0000 C   0  0  0  0  0  4           0  0  0
    0.0000    0.0000    0.0000 C   0  0  0  0  0  4           0  0  0
    0.0000    0.0000    0.0000 N   0  0  0  0  0  3           0  0  0
  1  2  1  0     0  0
  2  3  2  0     0  0
  3  4  1  0     0  0
  4  5  1  0     0  0
  4  6  2  0     0  0
  6  7  1  0     0  0
  7  8  3  0     0  0
  6  9  1  0     0  0
  9 10  1  0     0  0
 10 11  1  0     0  0
 11 12  1  0     0  0
 12 13  1  0     0  0
 13 14  1  0     0  0
 14 15  1  0     0  0
 15 16  1  0     0  0
 12 17  1  0     0  0
 16 17  1  0     0  0
  2 18  1  0     0  0
  9 18  2  0     0  0
M  END
> <Compound >
15

> <canonical_smiles>
NC1=NC(N)=C(C#N)C(OCC2CCCCC2)=N1

> <standard_type>
pIC50

> <standard_units>
nM

> <standard_relation>
=

> <actual_activity_value>
4.214670164989233

> <predicted_activity_value>
4.536139845515075

> <Publication ID>
nan

$$$$
15
  CDPL    08252113263D 1   1.00000     0.00000

 12 12  0     0  0            999 V2000
    0.0000    0.0000    0.0000 N   0  0  0  0  0  3           0  0  0
    0.0000    0.0000    0.0000 C   0  0  0  0  0  4           0  0  0
    0.0000    0.0000    0.0000 N   0  0  0  0  0  3           0  0  0
    0.0000    0.0000    0.0000 C   0  0  0  0  0  4           0  0  0
    0.0000    0.0000    0.0000 N   0  0  0  0  0  3           0  0  0
    0.0000    0.0000    0.0000 C   0  0  0  0  0  4           0  0  0
    0.0000    0.0000    0.0000 N   0  0  0  0  0  3           0  0  0
    0.0000    0.0000    0.0000 O   0  0  0  0  0  2           0  0  0
    0.0000    0.0000    0.0000 C   0  0  0  0  0  4           0  0  0
    0.0000    0.0000    0.0000 O   0  0  0  0  0  2           0  0  0
    0.0000    0.0000    0.0000 C   0  0  0  0  0  4           0  0  0
    0.0000    0.0000    0.0000 N   0  0  0  0  0  3           0  0  0
  1  2  1  0     0  0
  2  3  2  0     0  0
  3  4  1  0     0  0
  4  5  1  0     0  0
  4  6  2  0     0  0
  6  7  1  0     0  0
  7  8  2  0     0  0
  6  9  1  0     0  0
  9 10  1  0     0  0
 10 11  1  0     0  0
  2 12  1  0     0  0
  9 12  2  0     0  0
M  END
> <Compound >
16

> <canonical_smiles>
NC1=NC(N)=C(N=O)C(OC)=N1

> <standard_type>
pIC50

> <standard_units>
nM

> <standard_relation>
=

> <actual_activity_value>
4.102372908709558

> <predicted_activity_value>
3.7575430536731536

> <Publication ID>
nan

$$$$
