10
XXILIB    08252103513D 0   0.00000     0.00000

 26 28  0     1  0            999 V2000
   -1.2945   -0.0510    8.0328 S   0  0  2  0  0  6           0  0  0
   -0.3859    1.0540    8.2684 O   0  0  0  0  0  2           0  0  0
   -2.5321   -0.1692    8.7787 O   0  0  0  0  0  2           0  0  0
    1.3868    0.0000    0.0000 O   0  0  0  0  0  2           0  0  0
   -0.6847   -0.0000    1.1639 N   0  0  0  0  0  3           0  0  0
   -2.7069    0.0043   -0.0944 N   0  0  0  0  0  3           0  0  0
   -0.4337   -1.5189    8.1340 N   0  0  0  0  0  3           0  0  0
   -2.8030    0.0049    2.2606 N   0  0  0  0  0  3           0  0  0
   -2.6687    0.0271   -2.4653 N   0  0  0  0  0  3           0  0  0
   -1.7066   -0.0432    6.3178 C   0  0  0  0  0  4           0  0  0
    0.0000    0.0000    0.0000 C   0  0  0  0  0  4           0  0  0
   -2.0355    0.0034    1.0836 C   0  0  0  0  0  4           0  0  0
   -1.9949   -0.0121   -1.2473 C   0  0  0  0  0  4           0  0  0
   -2.4154    0.0035    3.6031 C   0  0  0  0  0  4           0  0  0
   -2.9009   -0.6312    5.9083 C   0  0  0  0  0  4           0  0  0
   -0.8658    0.5766    5.3977 C   0  0  0  0  0  4           0  0  0
   -0.6104   -0.0003   -1.2374 C   0  0  0  0  0  4           0  0  0
   -3.2473   -0.6080    4.5561 C   0  0  0  0  0  4           0  0  0
   -1.2220    0.5965    4.0460 C   0  0  0  0  0  4           0  0  0
    2.0000    0.0000    1.2903 C   0  0  0  0  0  4           0  0  0
    3.5162    0.0000    1.1135 C   0  0  2  0  0  4           0  0  0
    3.9928   -1.2387    0.3379 C   0  0  0  0  0  4           0  0  0
    4.2416    0.0907    2.4657 C   0  0  0  0  0  4           0  0  0
    5.5099   -1.2373    0.1577 C   0  0  0  0  0  4           0  0  0
    5.7590    0.0938    2.2880 C   0  0  0  0  0  4           0  0  0
    6.2333   -1.1212    1.4962 C   0  0  0  0  0  4           0  0  0
  1  2  2  0     0  0
  1  3  2  0     0  0
  1  7  1  0     0  0
  1 10  1  0     0  0
  4 11  1  0     0  0
  4 20  1  0     0  0
  5 11  2  0     0  0
  5 12  1  0     0  0
  6 12  2  0     0  0
  6 13  1  0     0  0
  8 12  1  0     0  0
  8 14  1  0     0  0
  9 13  1  0     0  0
 10 15  2  0     0  0
 10 16  1  0     0  0
 11 17  1  0     0  0
 13 17  2  0     0  0
 14 18  2  0     0  0
 14 19  1  0     0  0
 15 18  1  0     0  0
 16 19  2  0     0  0
 20 21  1  0     0  0
 21 22  1  0     0  0
 21 23  1  0     0  0
 22 24  1  0     0  0
 23 25  1  0     0  0
 24 26  1  0     0  0
 25 26  1  0     0  0
M  END
> <Compound >
11

> <standard_type>
pIC50

> <# Confs.>
25

> <canonical_smiles>
NC1=CC(OCC2CCCCC2)=NC(NC3=CC=C(S(=O)(N)=O)C=C3)=N1

> <standard_relation>
=

> <predicted_activity_value>
5.566486179335457

> <actual_activity_value>
5.533132379645891

> <Publication ID>
nan

> <standard_units>
nM

> hash
10879493924106730428

$$$$
10
XXILIB    08252103513D 0   0.00000     0.00000

 26 28  0     1  0            999 V2000
   -1.2945   -0.0510    8.0328 S   0  0  2  0  0  6           0  0  0
   -0.3859    1.0540    8.2684 O   0  0  0  0  0  2           0  0  0
   -2.5321   -0.1692    8.7787 O   0  0  0  0  0  2           0  0  0
    1.3868    0.0000    0.0000 O   0  0  0  0  0  2           0  0  0
   -0.6847   -0.0000    1.1639 N   0  0  0  0  0  3           0  0  0
   -2.7069    0.0043   -0.0944 N   0  0  0  0  0  3           0  0  0
   -0.4337   -1.5189    8.1340 N   0  0  0  0  0  3           0  0  0
   -2.8030    0.0049    2.2606 N   0  0  0  0  0  3           0  0  0
   -2.6687    0.0271   -2.4653 N   0  0  0  0  0  3           0  0  0
   -1.7066   -0.0432    6.3178 C   0  0  0  0  0  4           0  0  0
    0.0000    0.0000    0.0000 C   0  0  0  0  0  4           0  0  0
   -2.0355    0.0034    1.0836 C   0  0  0  0  0  4           0  0  0
   -1.9949   -0.0121   -1.2473 C   0  0  0  0  0  4           0  0  0
   -2.4154    0.0035    3.6031 C   0  0  0  0  0  4           0  0  0
   -2.9009   -0.6312    5.9083 C   0  0  0  0  0  4           0  0  0
   -0.8658    0.5766    5.3977 C   0  0  0  0  0  4           0  0  0
   -0.6104   -0.0003   -1.2374 C   0  0  0  0  0  4           0  0  0
   -3.2473   -0.6080    4.5561 C   0  0  0  0  0  4           0  0  0
   -1.2220    0.5965    4.0460 C   0  0  0  0  0  4           0  0  0
    2.0000    0.0000    1.2903 C   0  0  0  0  0  4           0  0  0
    3.5162    0.0000    1.1135 C   0  0  2  0  0  4           0  0  0
    4.2412    0.0000    2.4690 C   0  0  0  0  0  4           0  0  0
    3.9846    1.1906    0.2614 C   0  0  0  0  0  4           0  0  0
    5.7587   -0.0036    2.2925 C   0  0  0  0  0  4           0  0  0
    5.5018    1.1883    0.0823 C   0  0  0  0  0  4           0  0  0
    6.2250    1.1623    1.4256 C   0  0  0  0  0  4           0  0  0
  1  2  2  0     0  0
  1  3  2  0     0  0
  1  7  1  0     0  0
  1 10  1  0     0  0
  4 11  1  0     0  0
  4 20  1  0     0  0
  5 11  2  0     0  0
  5 12  1  0     0  0
  6 12  2  0     0  0
  6 13  1  0     0  0
  8 12  1  0     0  0
  8 14  1  0     0  0
  9 13  1  0     0  0
 10 15  2  0     0  0
 10 16  1  0     0  0
 11 17  1  0     0  0
 13 17  2  0     0  0
 14 18  2  0     0  0
 14 19  1  0     0  0
 15 18  1  0     0  0
 16 19  2  0     0  0
 20 21  1  0     0  0
 21 22  1  0     0  0
 21 23  1  0     0  0
 22 24  1  0     0  0
 23 25  1  0     0  0
 24 26  1  0     0  0
 25 26  1  0     0  0
M  END
> <Compound >
11

> <standard_type>
pIC50

> <# Confs.>
25

> <canonical_smiles>
NC1=CC(OCC2CCCCC2)=NC(NC3=CC=C(S(=O)(N)=O)C=C3)=N1

> <standard_relation>
=

> <predicted_activity_value>
5.566486179335457

> <actual_activity_value>
5.533132379645891

> <Publication ID>
nan

> <standard_units>
nM

> hash
10879493924106730428

$$$$
10
XXILIB    08252103513D 0   0.00000     0.00000

 26 28  0     1  0            999 V2000
   -1.2630    0.1052    8.0239 S   0  0  2  0  0  6           0  0  0
    0.1771   -0.0418    8.1047 O   0  0  0  0  0  2           0  0  0
   -1.9277    1.2549    8.6058 O   0  0  0  0  0  2           0  0  0
    1.3868    0.0000    0.0000 O   0  0  0  0  0  2           0  0  0
   -0.6847   -0.0000    1.1639 N   0  0  0  0  0  3           0  0  0
   -2.7069    0.0043   -0.0944 N   0  0  0  0  0  3           0  0  0
   -2.0070   -1.3207    8.5884 N   0  0  0  0  0  3           0  0  0
   -2.8030    0.0049    2.2606 N   0  0  0  0  0  3           0  0  0
   -2.6687    0.0271   -2.4653 N   0  0  0  0  0  3           0  0  0
   -1.7085    0.0410    6.3185 C   0  0  0  0  0  4           0  0  0
   -0.0000    0.0000    0.0000 C   0  0  0  0  0  4           0  0  0
   -2.0355    0.0034    1.0836 C   0  0  0  0  0  4           0  0  0
   -1.9949   -0.0121   -1.2473 C   0  0  0  0  0  4           0  0  0
   -2.4154    0.0035    3.6031 C   0  0  0  0  0  4           0  0  0
   -2.8956    0.6427    5.9082 C   0  0  0  0  0  4           0  0  0
   -0.8635   -0.5694    5.3958 C   0  0  0  0  0  4           0  0  0
   -0.6104   -0.0003   -1.2374 C   0  0  0  0  0  4           0  0  0
   -3.2442    0.6185    4.5565 C   0  0  0  0  0  4           0  0  0
   -1.2201   -0.5870    4.0442 C   0  0  0  0  0  4           0  0  0
    2.0000    0.0000    1.2903 C   0  0  0  0  0  4           0  0  0
    3.5162    0.0000    1.1135 C   0  0  2  0  0  4           0  0  0
    3.9928   -1.2387    0.3379 C   0  0  0  0  0  4           0  0  0
    4.2416    0.0907    2.4657 C   0  0  0  0  0  4           0  0  0
    5.5099   -1.2373    0.1577 C   0  0  0  0  0  4           0  0  0
    5.7590    0.0938    2.2880 C   0  0  0  0  0  4           0  0  0
    6.2333   -1.1212    1.4962 C   0  0  0  0  0  4           0  0  0
  1  2  2  0     0  0
  1  3  2  0     0  0
  1  7  1  0     0  0
  1 10  1  0     0  0
  4 11  1  0     0  0
  4 20  1  0     0  0
  5 11  2  0     0  0
  5 12  1  0     0  0
  6 12  2  0     0  0
  6 13  1  0     0  0
  8 12  1  0     0  0
  8 14  1  0     0  0
  9 13  1  0     0  0
 10 15  2  0     0  0
 10 16  1  0     0  0
 11 17  1  0     0  0
 13 17  2  0     0  0
 14 18  2  0     0  0
 14 19  1  0     0  0
 15 18  1  0     0  0
 16 19  2  0     0  0
 20 21  1  0     0  0
 21 22  1  0     0  0
 21 23  1  0     0  0
 22 24  1  0     0  0
 23 25  1  0     0  0
 24 26  1  0     0  0
 25 26  1  0     0  0
M  END
> <Compound >
11

> <standard_type>
pIC50

> <# Confs.>
25

> <canonical_smiles>
NC1=CC(OCC2CCCCC2)=NC(NC3=CC=C(S(=O)(N)=O)C=C3)=N1

> <standard_relation>
=

> <predicted_activity_value>
5.566486179335457

> <actual_activity_value>
5.533132379645891

> <Publication ID>
nan

> <standard_units>
nM

> hash
10879493924106730428

$$$$
10
XXILIB    08252103513D 0   0.00000     0.00000

 26 28  0     1  0            999 V2000
   -1.2945   -0.0510    8.0328 S   0  0  2  0  0  6           0  0  0
   -0.3859    1.0540    8.2684 O   0  0  0  0  0  2           0  0  0
   -2.5321   -0.1692    8.7787 O   0  0  0  0  0  2           0  0  0
    1.3868    0.0000    0.0000 O   0  0  0  0  0  2           0  0  0
   -0.6847   -0.0000    1.1639 N   0  0  0  0  0  3           0  0  0
   -2.7069    0.0043   -0.0944 N   0  0  0  0  0  3           0  0  0
   -0.4337   -1.5189    8.1340 N   0  0  0  0  0  3           0  0  0
   -2.8030    0.0049    2.2606 N   0  0  0  0  0  3           0  0  0
   -2.6687    0.0271   -2.4653 N   0  0  0  0  0  3           0  0  0
   -1.7066   -0.0432    6.3178 C   0  0  0  0  0  4           0  0  0
    0.0000    0.0000    0.0000 C   0  0  0  0  0  4           0  0  0
   -2.0355    0.0034    1.0836 C   0  0  0  0  0  4           0  0  0
   -1.9949   -0.0121   -1.2473 C   0  0  0  0  0  4           0  0  0
   -2.4154    0.0035    3.6031 C   0  0  0  0  0  4           0  0  0
   -2.9009   -0.6312    5.9083 C   0  0  0  0  0  4           0  0  0
   -0.8658    0.5766    5.3977 C   0  0  0  0  0  4           0  0  0
   -0.6104   -0.0003   -1.2374 C   0  0  0  0  0  4           0  0  0
   -3.2473   -0.6080    4.5561 C   0  0  0  0  0  4           0  0  0
   -1.2220    0.5965    4.0460 C   0  0  0  0  0  4           0  0  0
    2.0000    0.0000    1.2903 C   0  0  0  0  0  4           0  0  0
    3.5162    0.0000    1.1135 C   0  0  2  0  0  4           0  0  0
    3.9928    1.2387    0.3379 C   0  0  0  0  0  4           0  0  0
    4.0028   -1.2813    0.4175 C   0  0  0  0  0  4           0  0  0
    5.5106    1.2408    0.1639 C   0  0  0  0  0  4           0  0  0
    5.5207   -1.2821    0.2436 C   0  0  0  0  0  4           0  0  0
    6.0001   -0.0411   -0.5034 C   0  0  0  0  0  4           0  0  0
  1  2  2  0     0  0
  1  3  2  0     0  0
  1  7  1  0     0  0
  1 10  1  0     0  0
  4 11  1  0     0  0
  4 20  1  0     0  0
  5 11  2  0     0  0
  5 12  1  0     0  0
  6 12  2  0     0  0
  6 13  1  0     0  0
  8 12  1  0     0  0
  8 14  1  0     0  0
  9 13  1  0     0  0
 10 15  2  0     0  0
 10 16  1  0     0  0
 11 17  1  0     0  0
 13 17  2  0     0  0
 14 18  2  0     0  0
 14 19  1  0     0  0
 15 18  1  0     0  0
 16 19  2  0     0  0
 20 21  1  0     0  0
 21 22  1  0     0  0
 21 23  1  0     0  0
 22 24  1  0     0  0
 23 25  1  0     0  0
 24 26  1  0     0  0
 25 26  1  0     0  0
M  END
> <Compound >
11

> <standard_type>
pIC50

> <# Confs.>
25

> <canonical_smiles>
NC1=CC(OCC2CCCCC2)=NC(NC3=CC=C(S(=O)(N)=O)C=C3)=N1

> <standard_relation>
=

> <predicted_activity_value>
5.566486179335457

> <actual_activity_value>
5.533132379645891

> <Publication ID>
nan

> <standard_units>
nM

> hash
10879493924106730428

$$$$
10
XXILIB    08252103513D 0   0.00000     0.00000

 26 28  0     1  0            999 V2000
   -1.2630    0.1052    8.0239 S   0  0  2  0  0  6           0  0  0
    0.1771   -0.0418    8.1047 O   0  0  0  0  0  2           0  0  0
   -1.9277    1.2549    8.6058 O   0  0  0  0  0  2           0  0  0
    1.3868    0.0000    0.0000 O   0  0  0  0  0  2           0  0  0
   -0.6847   -0.0000    1.1639 N   0  0  0  0  0  3           0  0  0
   -2.7069    0.0043   -0.0944 N   0  0  0  0  0  3           0  0  0
   -2.0070   -1.3207    8.5884 N   0  0  0  0  0  3           0  0  0
   -2.8030    0.0049    2.2606 N   0  0  0  0  0  3           0  0  0
   -2.6687    0.0271   -2.4653 N   0  0  0  0  0  3           0  0  0
   -1.7085    0.0410    6.3185 C   0  0  0  0  0  4           0  0  0
   -0.0000    0.0000    0.0000 C   0  0  0  0  0  4           0  0  0
   -2.0355    0.0034    1.0836 C   0  0  0  0  0  4           0  0  0
   -1.9949   -0.0121   -1.2473 C   0  0  0  0  0  4           0  0  0
   -2.4154    0.0035    3.6031 C   0  0  0  0  0  4           0  0  0
   -2.8956    0.6427    5.9082 C   0  0  0  0  0  4           0  0  0
   -0.8635   -0.5694    5.3958 C   0  0  0  0  0  4           0  0  0
   -0.6104   -0.0003   -1.2374 C   0  0  0  0  0  4           0  0  0
   -3.2442    0.6185    4.5565 C   0  0  0  0  0  4           0  0  0
   -1.2201   -0.5870    4.0442 C   0  0  0  0  0  4           0  0  0
    2.0000    0.0000    1.2903 C   0  0  0  0  0  4           0  0  0
    3.5162    0.0000    1.1135 C   0  0  2  0  0  4           0  0  0
    4.2412    0.0000    2.4690 C   0  0  0  0  0  4           0  0  0
    3.9846    1.1906    0.2614 C   0  0  0  0  0  4           0  0  0
    5.7587   -0.0036    2.2925 C   0  0  0  0  0  4           0  0  0
    5.5018    1.1883    0.0823 C   0  0  0  0  0  4           0  0  0
    6.2250    1.1623    1.4256 C   0  0  0  0  0  4           0  0  0
  1  2  2  0     0  0
  1  3  2  0     0  0
  1  7  1  0     0  0
  1 10  1  0     0  0
  4 11  1  0     0  0
  4 20  1  0     0  0
  5 11  2  0     0  0
  5 12  1  0     0  0
  6 12  2  0     0  0
  6 13  1  0     0  0
  8 12  1  0     0  0
  8 14  1  0     0  0
  9 13  1  0     0  0
 10 15  2  0     0  0
 10 16  1  0     0  0
 11 17  1  0     0  0
 13 17  2  0     0  0
 14 18  2  0     0  0
 14 19  1  0     0  0
 15 18  1  0     0  0
 16 19  2  0     0  0
 20 21  1  0     0  0
 21 22  1  0     0  0
 21 23  1  0     0  0
 22 24  1  0     0  0
 23 25  1  0     0  0
 24 26  1  0     0  0
 25 26  1  0     0  0
M  END
> <Compound >
11

> <standard_type>
pIC50

> <# Confs.>
25

> <canonical_smiles>
NC1=CC(OCC2CCCCC2)=NC(NC3=CC=C(S(=O)(N)=O)C=C3)=N1

> <standard_relation>
=

> <predicted_activity_value>
5.566486179335457

> <actual_activity_value>
5.533132379645891

> <Publication ID>
nan

> <standard_units>
nM

> hash
10879493924106730428

$$$$
10
XXILIB    08252103513D 0   0.00000     0.00000

 26 28  0     1  0            999 V2000
   -1.2630    0.1052    8.0239 S   0  0  2  0  0  6           0  0  0
    0.1771   -0.0418    8.1047 O   0  0  0  0  0  2           0  0  0
   -1.9277    1.2549    8.6058 O   0  0  0  0  0  2           0  0  0
    1.3868    0.0000    0.0000 O   0  0  0  0  0  2           0  0  0
   -0.6847   -0.0000    1.1639 N   0  0  0  0  0  3           0  0  0
   -2.7069    0.0043   -0.0944 N   0  0  0  0  0  3           0  0  0
   -2.0070   -1.3207    8.5884 N   0  0  0  0  0  3           0  0  0
   -2.8030    0.0049    2.2606 N   0  0  0  0  0  3           0  0  0
   -2.6687    0.0271   -2.4653 N   0  0  0  0  0  3           0  0  0
   -1.7085    0.0410    6.3185 C   0  0  0  0  0  4           0  0  0
   -0.0000    0.0000    0.0000 C   0  0  0  0  0  4           0  0  0
   -2.0355    0.0034    1.0836 C   0  0  0  0  0  4           0  0  0
   -1.9949   -0.0121   -1.2473 C   0  0  0  0  0  4           0  0  0
   -2.4154    0.0035    3.6031 C   0  0  0  0  0  4           0  0  0
   -2.8956    0.6427    5.9082 C   0  0  0  0  0  4           0  0  0
   -0.8635   -0.5694    5.3958 C   0  0  0  0  0  4           0  0  0
   -0.6104   -0.0003   -1.2374 C   0  0  0  0  0  4           0  0  0
   -3.2442    0.6185    4.5565 C   0  0  0  0  0  4           0  0  0
   -1.2201   -0.5870    4.0442 C   0  0  0  0  0  4           0  0  0
    2.0000    0.0000    1.2903 C   0  0  0  0  0  4           0  0  0
    3.5162    0.0000    1.1135 C   0  0  2  0  0  4           0  0  0
    3.9928    1.2387    0.3379 C   0  0  0  0  0  4           0  0  0
    4.0028   -1.2813    0.4175 C   0  0  0  0  0  4           0  0  0
    5.5106    1.2408    0.1639 C   0  0  0  0  0  4           0  0  0
    5.5207   -1.2821    0.2436 C   0  0  0  0  0  4           0  0  0
    6.0001   -0.0411   -0.5034 C   0  0  0  0  0  4           0  0  0
  1  2  2  0     0  0
  1  3  2  0     0  0
  1  7  1  0     0  0
  1 10  1  0     0  0
  4 11  1  0     0  0
  4 20  1  0     0  0
  5 11  2  0     0  0
  5 12  1  0     0  0
  6 12  2  0     0  0
  6 13  1  0     0  0
  8 12  1  0     0  0
  8 14  1  0     0  0
  9 13  1  0     0  0
 10 15  2  0     0  0
 10 16  1  0     0  0
 11 17  1  0     0  0
 13 17  2  0     0  0
 14 18  2  0     0  0
 14 19  1  0     0  0
 15 18  1  0     0  0
 16 19  2  0     0  0
 20 21  1  0     0  0
 21 22  1  0     0  0
 21 23  1  0     0  0
 22 24  1  0     0  0
 23 25  1  0     0  0
 24 26  1  0     0  0
 25 26  1  0     0  0
M  END
> <Compound >
11

> <standard_type>
pIC50

> <# Confs.>
25

> <canonical_smiles>
NC1=CC(OCC2CCCCC2)=NC(NC3=CC=C(S(=O)(N)=O)C=C3)=N1

> <standard_relation>
=

> <predicted_activity_value>
5.566486179335457

> <actual_activity_value>
5.533132379645891

> <Publication ID>
nan

> <standard_units>
nM

> hash
10879493924106730428

$$$$
10
XXILIB    08252103513D 0   0.00000     0.00000

 26 28  0     1  0            999 V2000
   -1.0030    0.0485    7.9488 S   0  0  2  0  0  6           0  0  0
   -1.6468   -1.0575    8.6302 O   0  0  0  0  0  2           0  0  0
    0.4419    0.1660    7.9205 O   0  0  0  0  0  2           0  0  0
    1.3868    0.0000    0.0000 O   0  0  0  0  0  2           0  0  0
   -0.6847   -0.0000    1.1639 N   0  0  0  0  0  3           0  0  0
   -2.7069    0.0043   -0.0944 N   0  0  0  0  0  3           0  0  0
   -1.6766    1.5157    8.4960 N   0  0  0  0  0  3           0  0  0
   -2.8030    0.0049    2.2606 N   0  0  0  0  0  3           0  0  0
   -2.6687    0.0271   -2.4653 N   0  0  0  0  0  3           0  0  0
   -1.5683    0.0444    6.2780 C   0  0  0  0  0  4           0  0  0
    0.0000    0.0000    0.0000 C   0  0  0  0  0  4           0  0  0
   -2.0355    0.0034    1.0836 C   0  0  0  0  0  4           0  0  0
   -1.9949   -0.0121   -1.2473 C   0  0  0  0  0  4           0  0  0
   -2.4154    0.0035    3.6031 C   0  0  0  0  0  4           0  0  0
   -0.7757    0.6339    5.2962 C   0  0  0  0  0  4           0  0  0
   -2.7705   -0.5740    5.9463 C   0  0  0  0  0  4           0  0  0
   -0.6104   -0.0003   -1.2374 C   0  0  0  0  0  4           0  0  0
   -1.2033    0.6135    3.9673 C   0  0  0  0  0  4           0  0  0
   -3.1895   -0.5910    4.6128 C   0  0  0  0  0  4           0  0  0
    2.0000    0.0000    1.2903 C   0  0  0  0  0  4           0  0  0
    3.5162    0.0000    1.1135 C   0  0  2  0  0  4           0  0  0
    3.9928   -1.2387    0.3379 C   0  0  0  0  0  4           0  0  0
    4.2416    0.0907    2.4657 C   0  0  0  0  0  4           0  0  0
    5.5099   -1.2373    0.1577 C   0  0  0  0  0  4           0  0  0
    5.7590    0.0938    2.2880 C   0  0  0  0  0  4           0  0  0
    6.2333   -1.1212    1.4962 C   0  0  0  0  0  4           0  0  0
  1  2  2  0     0  0
  1  3  2  0     0  0
  1  7  1  0     0  0
  1 10  1  0     0  0
  4 11  1  0     0  0
  4 20  1  0     0  0
  5 11  2  0     0  0
  5 12  1  0     0  0
  6 12  2  0     0  0
  6 13  1  0     0  0
  8 12  1  0     0  0
  8 14  1  0     0  0
  9 13  1  0     0  0
 10 15  2  0     0  0
 10 16  1  0     0  0
 11 17  1  0     0  0
 13 17  2  0     0  0
 14 18  2  0     0  0
 14 19  1  0     0  0
 15 18  1  0     0  0
 16 19  2  0     0  0
 20 21  1  0     0  0
 21 22  1  0     0  0
 21 23  1  0     0  0
 22 24  1  0     0  0
 23 25  1  0     0  0
 24 26  1  0     0  0
 25 26  1  0     0  0
M  END
> <Compound >
11

> <standard_type>
pIC50

> <# Confs.>
25

> <canonical_smiles>
NC1=CC(OCC2CCCCC2)=NC(NC3=CC=C(S(=O)(N)=O)C=C3)=N1

> <standard_relation>
=

> <predicted_activity_value>
5.566486179335457

> <actual_activity_value>
5.533132379645891

> <Publication ID>
nan

> <standard_units>
nM

> hash
10879493924106730428

$$$$
10
XXILIB    08252103513D 0   0.00000     0.00000

 26 28  0     1  0            999 V2000
   -1.2945   -0.0510    8.0328 S   0  0  2  0  0  6           0  0  0
   -0.3859    1.0540    8.2684 O   0  0  0  0  0  2           0  0  0
   -2.5321   -0.1692    8.7787 O   0  0  0  0  0  2           0  0  0
    1.3868    0.0000    0.0000 O   0  0  0  0  0  2           0  0  0
   -0.6847   -0.0000    1.1639 N   0  0  0  0  0  3           0  0  0
   -2.7069    0.0043   -0.0944 N   0  0  0  0  0  3           0  0  0
   -0.4337   -1.5189    8.1340 N   0  0  0  0  0  3           0  0  0
   -2.8030    0.0049    2.2606 N   0  0  0  0  0  3           0  0  0
   -2.6687    0.0271   -2.4653 N   0  0  0  0  0  3           0  0  0
   -1.7066   -0.0432    6.3178 C   0  0  0  0  0  4           0  0  0
    0.0000    0.0000    0.0000 C   0  0  0  0  0  4           0  0  0
   -2.0355    0.0034    1.0836 C   0  0  0  0  0  4           0  0  0
   -1.9949   -0.0121   -1.2473 C   0  0  0  0  0  4           0  0  0
   -2.4154    0.0035    3.6031 C   0  0  0  0  0  4           0  0  0
   -2.9009   -0.6312    5.9083 C   0  0  0  0  0  4           0  0  0
   -0.8658    0.5766    5.3977 C   0  0  0  0  0  4           0  0  0
   -0.6104   -0.0003   -1.2374 C   0  0  0  0  0  4           0  0  0
   -3.2473   -0.6080    4.5561 C   0  0  0  0  0  4           0  0  0
   -1.2220    0.5965    4.0460 C   0  0  0  0  0  4           0  0  0
    2.0000    0.0000    1.2903 C   0  0  0  0  0  4           0  0  0
    3.5162    0.0000    1.1135 C   0  0  2  0  0  4           0  0  0
    4.2392    0.0000    2.4688 C   0  0  0  0  0  4           0  0  0
    4.0070   -1.1701    0.2424 C   0  0  0  0  0  4           0  0  0
    4.1586   -1.3463    3.1864 C   0  0  0  0  0  4           0  0  0
    3.9312   -2.5183    0.9574 C   0  0  0  0  0  4           0  0  0
    4.6541   -2.4852    2.3005 C   0  0  0  0  0  4           0  0  0
  1  2  2  0     0  0
  1  3  2  0     0  0
  1  7  1  0     0  0
  1 10  1  0     0  0
  4 11  1  0     0  0
  4 20  1  0     0  0
  5 11  2  0     0  0
  5 12  1  0     0  0
  6 12  2  0     0  0
  6 13  1  0     0  0
  8 12  1  0     0  0
  8 14  1  0     0  0
  9 13  1  0     0  0
 10 15  2  0     0  0
 10 16  1  0     0  0
 11 17  1  0     0  0
 13 17  2  0     0  0
 14 18  2  0     0  0
 14 19  1  0     0  0
 15 18  1  0     0  0
 16 19  2  0     0  0
 20 21  1  0     0  0
 21 22  1  0     0  0
 21 23  1  0     0  0
 22 24  1  0     0  0
 23 25  1  0     0  0
 24 26  1  0     0  0
 25 26  1  0     0  0
M  END
> <Compound >
11

> <standard_type>
pIC50

> <# Confs.>
25

> <canonical_smiles>
NC1=CC(OCC2CCCCC2)=NC(NC3=CC=C(S(=O)(N)=O)C=C3)=N1

> <standard_relation>
=

> <predicted_activity_value>
5.566486179335457

> <actual_activity_value>
5.533132379645891

> <Publication ID>
nan

> <standard_units>
nM

> hash
10879493924106730428

$$$$
10
XXILIB    08252103513D 0   0.00000     0.00000

 26 28  0     1  0            999 V2000
   -1.2945   -0.0510    8.0328 S   0  0  2  0  0  6           0  0  0
   -0.3859    1.0540    8.2684 O   0  0  0  0  0  2           0  0  0
   -2.5321   -0.1692    8.7787 O   0  0  0  0  0  2           0  0  0
    1.3868    0.0000    0.0000 O   0  0  0  0  0  2           0  0  0
   -0.6847   -0.0000    1.1639 N   0  0  0  0  0  3           0  0  0
   -2.7069    0.0043   -0.0944 N   0  0  0  0  0  3           0  0  0
   -0.4337   -1.5189    8.1340 N   0  0  0  0  0  3           0  0  0
   -2.8030    0.0049    2.2606 N   0  0  0  0  0  3           0  0  0
   -2.6687    0.0271   -2.4653 N   0  0  0  0  0  3           0  0  0
   -1.7066   -0.0432    6.3178 C   0  0  0  0  0  4           0  0  0
    0.0000    0.0000    0.0000 C   0  0  0  0  0  4           0  0  0
   -2.0355    0.0034    1.0836 C   0  0  0  0  0  4           0  0  0
   -1.9949   -0.0121   -1.2473 C   0  0  0  0  0  4           0  0  0
   -2.4154    0.0035    3.6031 C   0  0  0  0  0  4           0  0  0
   -2.9009   -0.6312    5.9083 C   0  0  0  0  0  4           0  0  0
   -0.8658    0.5766    5.3977 C   0  0  0  0  0  4           0  0  0
   -0.6104   -0.0003   -1.2374 C   0  0  0  0  0  4           0  0  0
   -3.2473   -0.6080    4.5561 C   0  0  0  0  0  4           0  0  0
   -1.2220    0.5965    4.0460 C   0  0  0  0  0  4           0  0  0
    2.0000    0.0000    1.2903 C   0  0  0  0  0  4           0  0  0
    3.5162    0.0000    1.1135 C   0  0  2  0  0  4           0  0  0
    3.9908    1.2383    0.3384 C   0  0  0  0  0  4           0  0  0
    4.2648   -0.1150    2.4534 C   0  0  0  0  0  4           0  0  0
    3.9230    2.5207    1.1660 C   0  0  0  0  0  4           0  0  0
    4.2023    1.1665    3.2830 C   0  0  0  0  0  4           0  0  0
    4.6757    2.3777    2.4853 C   0  0  0  0  0  4           0  0  0
  1  2  2  0     0  0
  1  3  2  0     0  0
  1  7  1  0     0  0
  1 10  1  0     0  0
  4 11  1  0     0  0
  4 20  1  0     0  0
  5 11  2  0     0  0
  5 12  1  0     0  0
  6 12  2  0     0  0
  6 13  1  0     0  0
  8 12  1  0     0  0
  8 14  1  0     0  0
  9 13  1  0     0  0
 10 15  2  0     0  0
 10 16  1  0     0  0
 11 17  1  0     0  0
 13 17  2  0     0  0
 14 18  2  0     0  0
 14 19  1  0     0  0
 15 18  1  0     0  0
 16 19  2  0     0  0
 20 21  1  0     0  0
 21 22  1  0     0  0
 21 23  1  0     0  0
 22 24  1  0     0  0
 23 25  1  0     0  0
 24 26  1  0     0  0
 25 26  1  0     0  0
M  END
> <Compound >
11

> <standard_type>
pIC50

> <# Confs.>
25

> <canonical_smiles>
NC1=CC(OCC2CCCCC2)=NC(NC3=CC=C(S(=O)(N)=O)C=C3)=N1

> <standard_relation>
=

> <predicted_activity_value>
5.566486179335457

> <actual_activity_value>
5.533132379645891

> <Publication ID>
nan

> <standard_units>
nM

> hash
10879493924106730428

$$$$
10
XXILIB    08252103513D 0   0.00000     0.00000

 26 28  0     1  0            999 V2000
   -1.0345   -0.1077    7.9577 S   0  0  2  0  0  6           0  0  0
   -2.2099    0.0384    8.7939 O   0  0  0  0  0  2           0  0  0
   -0.1626   -1.2581    8.0935 O   0  0  0  0  0  2           0  0  0
    1.3868    0.0000    0.0000 O   0  0  0  0  0  2           0  0  0
   -0.6847   -0.0000    1.1639 N   0  0  0  0  0  3           0  0  0
   -2.7069    0.0043   -0.0944 N   0  0  0  0  0  3           0  0  0
   -0.1032    1.3176    8.0416 N   0  0  0  0  0  3           0  0  0
   -2.8030    0.0049    2.2606 N   0  0  0  0  0  3           0  0  0
   -2.6687    0.0271   -2.4653 N   0  0  0  0  0  3           0  0  0
   -1.5664   -0.0398    6.2774 C   0  0  0  0  0  4           0  0  0
    0.0000    0.0000   -0.0000 C   0  0  0  0  0  4           0  0  0
   -2.0355    0.0034    1.0836 C   0  0  0  0  0  4           0  0  0
   -1.9949   -0.0121   -1.2473 C   0  0  0  0  0  4           0  0  0
   -2.4154    0.0035    3.6031 C   0  0  0  0  0  4           0  0  0
   -0.7810   -0.6400    5.2963 C   0  0  0  0  0  4           0  0  0
   -2.7727    0.5719    5.9482 C   0  0  0  0  0  4           0  0  0
   -0.6104   -0.0003   -1.2374 C   0  0  0  0  0  4           0  0  0
   -1.2064   -0.6129    3.9669 C   0  0  0  0  0  4           0  0  0
   -3.1914    0.5924    4.6146 C   0  0  0  0  0  4           0  0  0
    2.0000    0.0000    1.2903 C   0  0  0  0  0  4           0  0  0
    3.5162    0.0000    1.1135 C   0  0  2  0  0  4           0  0  0
    3.9928   -1.2387    0.3379 C   0  0  0  0  0  4           0  0  0
    4.2416    0.0907    2.4657 C   0  0  0  0  0  4           0  0  0
    5.5099   -1.2373    0.1577 C   0  0  0  0  0  4           0  0  0
    5.7590    0.0938    2.2880 C   0  0  0  0  0  4           0  0  0
    6.2333   -1.1212    1.4962 C   0  0  0  0  0  4           0  0  0
  1  2  2  0     0  0
  1  3  2  0     0  0
  1  7  1  0     0  0
  1 10  1  0     0  0
  4 11  1  0     0  0
  4 20  1  0     0  0
  5 11  2  0     0  0
  5 12  1  0     0  0
  6 12  2  0     0  0
  6 13  1  0     0  0
  8 12  1  0     0  0
  8 14  1  0     0  0
  9 13  1  0     0  0
 10 15  2  0     0  0
 10 16  1  0     0  0
 11 17  1  0     0  0
 13 17  2  0     0  0
 14 18  2  0     0  0
 14 19  1  0     0  0
 15 18  1  0     0  0
 16 19  2  0     0  0
 20 21  1  0     0  0
 21 22  1  0     0  0
 21 23  1  0     0  0
 22 24  1  0     0  0
 23 25  1  0     0  0
 24 26  1  0     0  0
 25 26  1  0     0  0
M  END
> <Compound >
11

> <standard_type>
pIC50

> <# Confs.>
25

> <canonical_smiles>
NC1=CC(OCC2CCCCC2)=NC(NC3=CC=C(S(=O)(N)=O)C=C3)=N1

> <standard_relation>
=

> <predicted_activity_value>
5.566486179335457

> <actual_activity_value>
5.533132379645891

> <Publication ID>
nan

> <standard_units>
nM

> hash
10879493924106730428

$$$$
10
XXILIB    08252103513D 0   0.00000     0.00000

 26 28  0     1  0            999 V2000
   -1.0030    0.0485    7.9488 S   0  0  2  0  0  6           0  0  0
   -1.6468   -1.0575    8.6302 O   0  0  0  0  0  2           0  0  0
    0.4419    0.1660    7.9205 O   0  0  0  0  0  2           0  0  0
    1.3868    0.0000    0.0000 O   0  0  0  0  0  2           0  0  0
   -0.6847   -0.0000    1.1639 N   0  0  0  0  0  3           0  0  0
   -2.7069    0.0043   -0.0944 N   0  0  0  0  0  3           0  0  0
   -1.6766    1.5157    8.4960 N   0  0  0  0  0  3           0  0  0
   -2.8030    0.0049    2.2606 N   0  0  0  0  0  3           0  0  0
   -2.6687    0.0271   -2.4653 N   0  0  0  0  0  3           0  0  0
   -1.5683    0.0444    6.2780 C   0  0  0  0  0  4           0  0  0
    0.0000    0.0000    0.0000 C   0  0  0  0  0  4           0  0  0
   -2.0355    0.0034    1.0836 C   0  0  0  0  0  4           0  0  0
   -1.9949   -0.0121   -1.2473 C   0  0  0  0  0  4           0  0  0
   -2.4154    0.0035    3.6031 C   0  0  0  0  0  4           0  0  0
   -0.7757    0.6339    5.2962 C   0  0  0  0  0  4           0  0  0
   -2.7705   -0.5740    5.9463 C   0  0  0  0  0  4           0  0  0
   -0.6104   -0.0003   -1.2374 C   0  0  0  0  0  4           0  0  0
   -1.2033    0.6135    3.9673 C   0  0  0  0  0  4           0  0  0
   -3.1895   -0.5910    4.6128 C   0  0  0  0  0  4           0  0  0
    2.0000    0.0000    1.2903 C   0  0  0  0  0  4           0  0  0
    3.5162    0.0000    1.1135 C   0  0  2  0  0  4           0  0  0
    4.2412    0.0000    2.4690 C   0  0  0  0  0  4           0  0  0
    3.9846    1.1906    0.2614 C   0  0  0  0  0  4           0  0  0
    5.7587   -0.0036    2.2925 C   0  0  0  0  0  4           0  0  0
    5.5018    1.1883    0.0823 C   0  0  0  0  0  4           0  0  0
    6.2250    1.1623    1.4256 C   0  0  0  0  0  4           0  0  0
  1  2  2  0     0  0
  1  3  2  0     0  0
  1  7  1  0     0  0
  1 10  1  0     0  0
  4 11  1  0     0  0
  4 20  1  0     0  0
  5 11  2  0     0  0
  5 12  1  0     0  0
  6 12  2  0     0  0
  6 13  1  0     0  0
  8 12  1  0     0  0
  8 14  1  0     0  0
  9 13  1  0     0  0
 10 15  2  0     0  0
 10 16  1  0     0  0
 11 17  1  0     0  0
 13 17  2  0     0  0
 14 18  2  0     0  0
 14 19  1  0     0  0
 15 18  1  0     0  0
 16 19  2  0     0  0
 20 21  1  0     0  0
 21 22  1  0     0  0
 21 23  1  0     0  0
 22 24  1  0     0  0
 23 25  1  0     0  0
 24 26  1  0     0  0
 25 26  1  0     0  0
M  END
> <Compound >
11

> <standard_type>
pIC50

> <# Confs.>
25

> <canonical_smiles>
NC1=CC(OCC2CCCCC2)=NC(NC3=CC=C(S(=O)(N)=O)C=C3)=N1

> <standard_relation>
=

> <predicted_activity_value>
5.566486179335457

> <actual_activity_value>
5.533132379645891

> <Publication ID>
nan

> <standard_units>
nM

> hash
10879493924106730428

$$$$
10
XXILIB    08252103513D 0   0.00000     0.00000

 26 28  0     1  0            999 V2000
   -1.2630    0.1052    8.0239 S   0  0  2  0  0  6           0  0  0
    0.1771   -0.0418    8.1047 O   0  0  0  0  0  2           0  0  0
   -1.9277    1.2549    8.6058 O   0  0  0  0  0  2           0  0  0
    1.3868    0.0000    0.0000 O   0  0  0  0  0  2           0  0  0
   -0.6847   -0.0000    1.1639 N   0  0  0  0  0  3           0  0  0
   -2.7069    0.0043   -0.0944 N   0  0  0  0  0  3           0  0  0
   -2.0070   -1.3207    8.5884 N   0  0  0  0  0  3           0  0  0
   -2.8030    0.0049    2.2606 N   0  0  0  0  0  3           0  0  0
   -2.6687    0.0271   -2.4653 N   0  0  0  0  0  3           0  0  0
   -1.7085    0.0410    6.3185 C   0  0  0  0  0  4           0  0  0
   -0.0000    0.0000    0.0000 C   0  0  0  0  0  4           0  0  0
   -2.0355    0.0034    1.0836 C   0  0  0  0  0  4           0  0  0
   -1.9949   -0.0121   -1.2473 C   0  0  0  0  0  4           0  0  0
   -2.4154    0.0035    3.6031 C   0  0  0  0  0  4           0  0  0
   -2.8956    0.6427    5.9082 C   0  0  0  0  0  4           0  0  0
   -0.8635   -0.5694    5.3958 C   0  0  0  0  0  4           0  0  0
   -0.6104   -0.0003   -1.2374 C   0  0  0  0  0  4           0  0  0
   -3.2442    0.6185    4.5565 C   0  0  0  0  0  4           0  0  0
   -1.2201   -0.5870    4.0442 C   0  0  0  0  0  4           0  0  0
    2.0000    0.0000    1.2903 C   0  0  0  0  0  4           0  0  0
    3.5162    0.0000    1.1135 C   0  0  2  0  0  4           0  0  0
    4.2392    0.0000    2.4688 C   0  0  0  0  0  4           0  0  0
    4.0070   -1.1701    0.2424 C   0  0  0  0  0  4           0  0  0
    4.1586   -1.3463    3.1864 C   0  0  0  0  0  4           0  0  0
    3.9312   -2.5183    0.9574 C   0  0  0  0  0  4           0  0  0
    4.6541   -2.4852    2.3005 C   0  0  0  0  0  4           0  0  0
  1  2  2  0     0  0
  1  3  2  0     0  0
  1  7  1  0     0  0
  1 10  1  0     0  0
  4 11  1  0     0  0
  4 20  1  0     0  0
  5 11  2  0     0  0
  5 12  1  0     0  0
  6 12  2  0     0  0
  6 13  1  0     0  0
  8 12  1  0     0  0
  8 14  1  0     0  0
  9 13  1  0     0  0
 10 15  2  0     0  0
 10 16  1  0     0  0
 11 17  1  0     0  0
 13 17  2  0     0  0
 14 18  2  0     0  0
 14 19  1  0     0  0
 15 18  1  0     0  0
 16 19  2  0     0  0
 20 21  1  0     0  0
 21 22  1  0     0  0
 21 23  1  0     0  0
 22 24  1  0     0  0
 23 25  1  0     0  0
 24 26  1  0     0  0
 25 26  1  0     0  0
M  END
> <Compound >
11

> <standard_type>
pIC50

> <# Confs.>
25

> <canonical_smiles>
NC1=CC(OCC2CCCCC2)=NC(NC3=CC=C(S(=O)(N)=O)C=C3)=N1

> <standard_relation>
=

> <predicted_activity_value>
5.566486179335457

> <actual_activity_value>
5.533132379645891

> <Publication ID>
nan

> <standard_units>
nM

> hash
10879493924106730428

$$$$
10
XXILIB    08252103513D 0   0.00000     0.00000

 26 28  0     1  0            999 V2000
   -1.0030    0.0485    7.9488 S   0  0  2  0  0  6           0  0  0
   -1.6468   -1.0575    8.6302 O   0  0  0  0  0  2           0  0  0
    0.4419    0.1660    7.9205 O   0  0  0  0  0  2           0  0  0
    1.3868    0.0000    0.0000 O   0  0  0  0  0  2           0  0  0
   -0.6847   -0.0000    1.1639 N   0  0  0  0  0  3           0  0  0
   -2.7069    0.0043   -0.0944 N   0  0  0  0  0  3           0  0  0
   -1.6766    1.5157    8.4960 N   0  0  0  0  0  3           0  0  0
   -2.8030    0.0049    2.2606 N   0  0  0  0  0  3           0  0  0
   -2.6687    0.0271   -2.4653 N   0  0  0  0  0  3           0  0  0
   -1.5683    0.0444    6.2780 C   0  0  0  0  0  4           0  0  0
    0.0000    0.0000    0.0000 C   0  0  0  0  0  4           0  0  0
   -2.0355    0.0034    1.0836 C   0  0  0  0  0  4           0  0  0
   -1.9949   -0.0121   -1.2473 C   0  0  0  0  0  4           0  0  0
   -2.4154    0.0035    3.6031 C   0  0  0  0  0  4           0  0  0
   -0.7757    0.6339    5.2962 C   0  0  0  0  0  4           0  0  0
   -2.7705   -0.5740    5.9463 C   0  0  0  0  0  4           0  0  0
   -0.6104   -0.0003   -1.2374 C   0  0  0  0  0  4           0  0  0
   -1.2033    0.6135    3.9673 C   0  0  0  0  0  4           0  0  0
   -3.1895   -0.5910    4.6128 C   0  0  0  0  0  4           0  0  0
    2.0000    0.0000    1.2903 C   0  0  0  0  0  4           0  0  0
    3.5162    0.0000    1.1135 C   0  0  2  0  0  4           0  0  0
    3.9928    1.2387    0.3379 C   0  0  0  0  0  4           0  0  0
    4.0028   -1.2813    0.4175 C   0  0  0  0  0  4           0  0  0
    5.5106    1.2408    0.1639 C   0  0  0  0  0  4           0  0  0
    5.5207   -1.2821    0.2436 C   0  0  0  0  0  4           0  0  0
    6.0001   -0.0411   -0.5034 C   0  0  0  0  0  4           0  0  0
  1  2  2  0     0  0
  1  3  2  0     0  0
  1  7  1  0     0  0
  1 10  1  0     0  0
  4 11  1  0     0  0
  4 20  1  0     0  0
  5 11  2  0     0  0
  5 12  1  0     0  0
  6 12  2  0     0  0
  6 13  1  0     0  0
  8 12  1  0     0  0
  8 14  1  0     0  0
  9 13  1  0     0  0
 10 15  2  0     0  0
 10 16  1  0     0  0
 11 17  1  0     0  0
 13 17  2  0     0  0
 14 18  2  0     0  0
 14 19  1  0     0  0
 15 18  1  0     0  0
 16 19  2  0     0  0
 20 21  1  0     0  0
 21 22  1  0     0  0
 21 23  1  0     0  0
 22 24  1  0     0  0
 23 25  1  0     0  0
 24 26  1  0     0  0
 25 26  1  0     0  0
M  END
> <Compound >
11

> <standard_type>
pIC50

> <# Confs.>
25

> <canonical_smiles>
NC1=CC(OCC2CCCCC2)=NC(NC3=CC=C(S(=O)(N)=O)C=C3)=N1

> <standard_relation>
=

> <predicted_activity_value>
5.566486179335457

> <actual_activity_value>
5.533132379645891

> <Publication ID>
nan

> <standard_units>
nM

> hash
10879493924106730428

$$$$
10
XXILIB    08252103513D 0   0.00000     0.00000

 26 28  0     1  0            999 V2000
   -1.0345   -0.1077    7.9577 S   0  0  2  0  0  6           0  0  0
   -2.2099    0.0384    8.7939 O   0  0  0  0  0  2           0  0  0
   -0.1626   -1.2581    8.0935 O   0  0  0  0  0  2           0  0  0
    1.3868    0.0000    0.0000 O   0  0  0  0  0  2           0  0  0
   -0.6847   -0.0000    1.1639 N   0  0  0  0  0  3           0  0  0
   -2.7069    0.0043   -0.0944 N   0  0  0  0  0  3           0  0  0
   -0.1032    1.3176    8.0416 N   0  0  0  0  0  3           0  0  0
   -2.8030    0.0049    2.2606 N   0  0  0  0  0  3           0  0  0
   -2.6687    0.0271   -2.4653 N   0  0  0  0  0  3           0  0  0
   -1.5664   -0.0398    6.2774 C   0  0  0  0  0  4           0  0  0
    0.0000    0.0000   -0.0000 C   0  0  0  0  0  4           0  0  0
   -2.0355    0.0034    1.0836 C   0  0  0  0  0  4           0  0  0
   -1.9949   -0.0121   -1.2473 C   0  0  0  0  0  4           0  0  0
   -2.4154    0.0035    3.6031 C   0  0  0  0  0  4           0  0  0
   -0.7810   -0.6400    5.2963 C   0  0  0  0  0  4           0  0  0
   -2.7727    0.5719    5.9482 C   0  0  0  0  0  4           0  0  0
   -0.6104   -0.0003   -1.2374 C   0  0  0  0  0  4           0  0  0
   -1.2064   -0.6129    3.9669 C   0  0  0  0  0  4           0  0  0
   -3.1914    0.5924    4.6146 C   0  0  0  0  0  4           0  0  0
    2.0000    0.0000    1.2903 C   0  0  0  0  0  4           0  0  0
    3.5162    0.0000    1.1135 C   0  0  2  0  0  4           0  0  0
    4.2412    0.0000    2.4690 C   0  0  0  0  0  4           0  0  0
    3.9846    1.1906    0.2614 C   0  0  0  0  0  4           0  0  0
    5.7587   -0.0036    2.2925 C   0  0  0  0  0  4           0  0  0
    5.5018    1.1883    0.0823 C   0  0  0  0  0  4           0  0  0
    6.2250    1.1623    1.4256 C   0  0  0  0  0  4           0  0  0
  1  2  2  0     0  0
  1  3  2  0     0  0
  1  7  1  0     0  0
  1 10  1  0     0  0
  4 11  1  0     0  0
  4 20  1  0     0  0
  5 11  2  0     0  0
  5 12  1  0     0  0
  6 12  2  0     0  0
  6 13  1  0     0  0
  8 12  1  0     0  0
  8 14  1  0     0  0
  9 13  1  0     0  0
 10 15  2  0     0  0
 10 16  1  0     0  0
 11 17  1  0     0  0
 13 17  2  0     0  0
 14 18  2  0     0  0
 14 19  1  0     0  0
 15 18  1  0     0  0
 16 19  2  0     0  0
 20 21  1  0     0  0
 21 22  1  0     0  0
 21 23  1  0     0  0
 22 24  1  0     0  0
 23 25  1  0     0  0
 24 26  1  0     0  0
 25 26  1  0     0  0
M  END
> <Compound >
11

> <standard_type>
pIC50

> <# Confs.>
25

> <canonical_smiles>
NC1=CC(OCC2CCCCC2)=NC(NC3=CC=C(S(=O)(N)=O)C=C3)=N1

> <standard_relation>
=

> <predicted_activity_value>
5.566486179335457

> <actual_activity_value>
5.533132379645891

> <Publication ID>
nan

> <standard_units>
nM

> hash
10879493924106730428

$$$$
10
XXILIB    08252103513D 0   0.00000     0.00000

 26 28  0     1  0            999 V2000
   -1.2630    0.1052    8.0239 S   0  0  2  0  0  6           0  0  0
    0.1771   -0.0418    8.1047 O   0  0  0  0  0  2           0  0  0
   -1.9277    1.2549    8.6058 O   0  0  0  0  0  2           0  0  0
    1.3868    0.0000    0.0000 O   0  0  0  0  0  2           0  0  0
   -0.6847   -0.0000    1.1639 N   0  0  0  0  0  3           0  0  0
   -2.7069    0.0043   -0.0944 N   0  0  0  0  0  3           0  0  0
   -2.0070   -1.3207    8.5884 N   0  0  0  0  0  3           0  0  0
   -2.8030    0.0049    2.2606 N   0  0  0  0  0  3           0  0  0
   -2.6687    0.0271   -2.4653 N   0  0  0  0  0  3           0  0  0
   -1.7085    0.0410    6.3185 C   0  0  0  0  0  4           0  0  0
   -0.0000    0.0000    0.0000 C   0  0  0  0  0  4           0  0  0
   -2.0355    0.0034    1.0836 C   0  0  0  0  0  4           0  0  0
   -1.9949   -0.0121   -1.2473 C   0  0  0  0  0  4           0  0  0
   -2.4154    0.0035    3.6031 C   0  0  0  0  0  4           0  0  0
   -2.8956    0.6427    5.9082 C   0  0  0  0  0  4           0  0  0
   -0.8635   -0.5694    5.3958 C   0  0  0  0  0  4           0  0  0
   -0.6104   -0.0003   -1.2374 C   0  0  0  0  0  4           0  0  0
   -3.2442    0.6185    4.5565 C   0  0  0  0  0  4           0  0  0
   -1.2201   -0.5870    4.0442 C   0  0  0  0  0  4           0  0  0
    2.0000    0.0000    1.2903 C   0  0  0  0  0  4           0  0  0
    3.5162    0.0000    1.1135 C   0  0  2  0  0  4           0  0  0
    3.9908    1.2383    0.3384 C   0  0  0  0  0  4           0  0  0
    4.2648   -0.1150    2.4534 C   0  0  0  0  0  4           0  0  0
    3.9230    2.5207    1.1660 C   0  0  0  0  0  4           0  0  0
    4.2023    1.1665    3.2830 C   0  0  0  0  0  4           0  0  0
    4.6757    2.3777    2.4853 C   0  0  0  0  0  4           0  0  0
  1  2  2  0     0  0
  1  3  2  0     0  0
  1  7  1  0     0  0
  1 10  1  0     0  0
  4 11  1  0     0  0
  4 20  1  0     0  0
  5 11  2  0     0  0
  5 12  1  0     0  0
  6 12  2  0     0  0
  6 13  1  0     0  0
  8 12  1  0     0  0
  8 14  1  0     0  0
  9 13  1  0     0  0
 10 15  2  0     0  0
 10 16  1  0     0  0
 11 17  1  0     0  0
 13 17  2  0     0  0
 14 18  2  0     0  0
 14 19  1  0     0  0
 15 18  1  0     0  0
 16 19  2  0     0  0
 20 21  1  0     0  0
 21 22  1  0     0  0
 21 23  1  0     0  0
 22 24  1  0     0  0
 23 25  1  0     0  0
 24 26  1  0     0  0
 25 26  1  0     0  0
M  END
> <Compound >
11

> <standard_type>
pIC50

> <# Confs.>
25

> <canonical_smiles>
NC1=CC(OCC2CCCCC2)=NC(NC3=CC=C(S(=O)(N)=O)C=C3)=N1

> <standard_relation>
=

> <predicted_activity_value>
5.566486179335457

> <actual_activity_value>
5.533132379645891

> <Publication ID>
nan

> <standard_units>
nM

> hash
10879493924106730428

$$$$
10
XXILIB    08252103513D 0   0.00000     0.00000

 26 28  0     1  0            999 V2000
   -1.0345   -0.1077    7.9577 S   0  0  2  0  0  6           0  0  0
   -2.2099    0.0384    8.7939 O   0  0  0  0  0  2           0  0  0
   -0.1626   -1.2581    8.0935 O   0  0  0  0  0  2           0  0  0
    1.3868    0.0000    0.0000 O   0  0  0  0  0  2           0  0  0
   -0.6847   -0.0000    1.1639 N   0  0  0  0  0  3           0  0  0
   -2.7069    0.0043   -0.0944 N   0  0  0  0  0  3           0  0  0
   -0.1032    1.3176    8.0416 N   0  0  0  0  0  3           0  0  0
   -2.8030    0.0049    2.2606 N   0  0  0  0  0  3           0  0  0
   -2.6687    0.0271   -2.4653 N   0  0  0  0  0  3           0  0  0
   -1.5664   -0.0398    6.2774 C   0  0  0  0  0  4           0  0  0
    0.0000    0.0000   -0.0000 C   0  0  0  0  0  4           0  0  0
   -2.0355    0.0034    1.0836 C   0  0  0  0  0  4           0  0  0
   -1.9949   -0.0121   -1.2473 C   0  0  0  0  0  4           0  0  0
   -2.4154    0.0035    3.6031 C   0  0  0  0  0  4           0  0  0
   -0.7810   -0.6400    5.2963 C   0  0  0  0  0  4           0  0  0
   -2.7727    0.5719    5.9482 C   0  0  0  0  0  4           0  0  0
   -0.6104   -0.0003   -1.2374 C   0  0  0  0  0  4           0  0  0
   -1.2064   -0.6129    3.9669 C   0  0  0  0  0  4           0  0  0
   -3.1914    0.5924    4.6146 C   0  0  0  0  0  4           0  0  0
    2.0000    0.0000    1.2903 C   0  0  0  0  0  4           0  0  0
    3.5162    0.0000    1.1135 C   0  0  2  0  0  4           0  0  0
    3.9928    1.2387    0.3379 C   0  0  0  0  0  4           0  0  0
    4.0028   -1.2813    0.4175 C   0  0  0  0  0  4           0  0  0
    5.5106    1.2408    0.1639 C   0  0  0  0  0  4           0  0  0
    5.5207   -1.2821    0.2436 C   0  0  0  0  0  4           0  0  0
    6.0001   -0.0411   -0.5034 C   0  0  0  0  0  4           0  0  0
  1  2  2  0     0  0
  1  3  2  0     0  0
  1  7  1  0     0  0
  1 10  1  0     0  0
  4 11  1  0     0  0
  4 20  1  0     0  0
  5 11  2  0     0  0
  5 12  1  0     0  0
  6 12  2  0     0  0
  6 13  1  0     0  0
  8 12  1  0     0  0
  8 14  1  0     0  0
  9 13  1  0     0  0
 10 15  2  0     0  0
 10 16  1  0     0  0
 11 17  1  0     0  0
 13 17  2  0     0  0
 14 18  2  0     0  0
 14 19  1  0     0  0
 15 18  1  0     0  0
 16 19  2  0     0  0
 20 21  1  0     0  0
 21 22  1  0     0  0
 21 23  1  0     0  0
 22 24  1  0     0  0
 23 25  1  0     0  0
 24 26  1  0     0  0
 25 26  1  0     0  0
M  END
> <Compound >
11

> <standard_type>
pIC50

> <# Confs.>
25

> <canonical_smiles>
NC1=CC(OCC2CCCCC2)=NC(NC3=CC=C(S(=O)(N)=O)C=C3)=N1

> <standard_relation>
=

> <predicted_activity_value>
5.566486179335457

> <actual_activity_value>
5.533132379645891

> <Publication ID>
nan

> <standard_units>
nM

> hash
10879493924106730428

$$$$
10
XXILIB    08252103513D 0   0.00000     0.00000

 26 28  0     1  0            999 V2000
   -8.6932    0.0695    3.2087 S   0  0  2  0  0  6           0  0  0
   -9.2766   -1.0362    2.4744 O   0  0  0  0  0  2           0  0  0
   -8.8763    0.1905    4.6418 O   0  0  0  0  0  2           0  0  0
    1.3868    0.0000    0.0000 O   0  0  0  0  0  2           0  0  0
   -0.6847    0.0000    1.1639 N   0  0  0  0  0  3           0  0  0
   -2.7069    0.0043   -0.0944 N   0  0  0  0  0  3           0  0  0
   -9.1312    1.5365    2.4592 N   0  0  0  0  0  3           0  0  0
   -2.8030    0.0049    2.2606 N   0  0  0  0  0  3           0  0  0
   -2.6687    0.0271   -2.4653 N   0  0  0  0  0  3           0  0  0
   -6.9577    0.0591    2.8939 C   0  0  0  0  0  4           0  0  0
    0.0000    0.0000    0.0000 C   0  0  0  0  0  4           0  0  0
   -2.0355    0.0034    1.0836 C   0  0  0  0  0  4           0  0  0
   -1.9949   -0.0121   -1.2473 C   0  0  0  0  0  4           0  0  0
   -4.1878    0.0083    2.4475 C   0  0  0  0  0  4           0  0  0
   -6.1005    0.6477    3.8205 C   0  0  0  0  0  4           0  0  0
   -6.4556   -0.5633    1.7546 C   0  0  0  0  0  4           0  0  0
   -0.6104   -0.0003   -1.2374 C   0  0  0  0  0  4           0  0  0
   -4.7235    0.6225    3.5920 C   0  0  0  0  0  4           0  0  0
   -5.0752   -0.5852    1.5352 C   0  0  0  0  0  4           0  0  0
    2.0000    0.0000    1.2903 C   0  0  0  0  0  4           0  0  0
    3.5162    0.0000    1.1135 C   0  0  2  0  0  4           0  0  0
    3.9928   -1.2387    0.3379 C   0  0  0  0  0  4           0  0  0
    4.2416    0.0907    2.4657 C   0  0  0  0  0  4           0  0  0
    5.5099   -1.2373    0.1577 C   0  0  0  0  0  4           0  0  0
    5.7590    0.0938    2.2880 C   0  0  0  0  0  4           0  0  0
    6.2333   -1.1212    1.4962 C   0  0  0  0  0  4           0  0  0
  1  2  2  0     0  0
  1  3  2  0     0  0
  1  7  1  0     0  0
  1 10  1  0     0  0
  4 11  1  0     0  0
  4 20  1  0     0  0
  5 11  2  0     0  0
  5 12  1  0     0  0
  6 12  2  0     0  0
  6 13  1  0     0  0
  8 12  1  0     0  0
  8 14  1  0     0  0
  9 13  1  0     0  0
 10 15  2  0     0  0
 10 16  1  0     0  0
 11 17  1  0     0  0
 13 17  2  0     0  0
 14 18  2  0     0  0
 14 19  1  0     0  0
 15 18  1  0     0  0
 16 19  2  0     0  0
 20 21  1  0     0  0
 21 22  1  0     0  0
 21 23  1  0     0  0
 22 24  1  0     0  0
 23 25  1  0     0  0
 24 26  1  0     0  0
 25 26  1  0     0  0
M  END
> <Compound >
11

> <standard_type>
pIC50

> <# Confs.>
25

> <canonical_smiles>
NC1=CC(OCC2CCCCC2)=NC(NC3=CC=C(S(=O)(N)=O)C=C3)=N1

> <standard_relation>
=

> <predicted_activity_value>
5.566486179335457

> <actual_activity_value>
5.533132379645891

> <Publication ID>
nan

> <standard_units>
nM

> hash
10879493924106730428

$$$$
10
XXILIB    08252103513D 0   0.00000     0.00000

 26 28  0     1  0            999 V2000
   -8.6979   -0.0868    3.1765 S   0  0  2  0  0  6           0  0  0
   -9.3526    0.0587    1.8911 O   0  0  0  0  0  2           0  0  0
   -8.9635   -1.2347    4.0215 O   0  0  0  0  0  2           0  0  0
    1.3868    0.0000    0.0000 O   0  0  0  0  0  2           0  0  0
   -0.6847    0.0000    1.1639 N   0  0  0  0  0  3           0  0  0
   -2.7069    0.0043   -0.0944 N   0  0  0  0  0  3           0  0  0
   -8.9126    1.3411    4.0825 N   0  0  0  0  0  3           0  0  0
   -2.8030    0.0049    2.2606 N   0  0  0  0  0  3           0  0  0
   -2.6687    0.0271   -2.4653 N   0  0  0  0  0  3           0  0  0
   -6.9576   -0.0251    2.8961 C   0  0  0  0  0  4           0  0  0
    0.0000    0.0000    0.0000 C   0  0  0  0  0  4           0  0  0
   -2.0355    0.0034    1.0836 C   0  0  0  0  0  4           0  0  0
   -1.9949   -0.0121   -1.2473 C   0  0  0  0  0  4           0  0  0
   -4.1878    0.0083    2.4475 C   0  0  0  0  0  4           0  0  0
   -6.1040   -0.6262    3.8179 C   0  0  0  0  0  4           0  0  0
   -6.4535    0.5826    1.7497 C   0  0  0  0  0  4           0  0  0
   -0.6104   -0.0003   -1.2374 C   0  0  0  0  0  4           0  0  0
   -4.7265   -0.6039    3.5916 C   0  0  0  0  0  4           0  0  0
   -5.0729    0.5982    1.5306 C   0  0  0  0  0  4           0  0  0
    2.0000    0.0000    1.2903 C   0  0  0  0  0  4           0  0  0
    3.5162    0.0000    1.1135 C   0  0  2  0  0  4           0  0  0
    3.9928   -1.2387    0.3379 C   0  0  0  0  0  4           0  0  0
    4.2416    0.0907    2.4657 C   0  0  0  0  0  4           0  0  0
    5.5099   -1.2373    0.1577 C   0  0  0  0  0  4           0  0  0
    5.7590    0.0938    2.2880 C   0  0  0  0  0  4           0  0  0
    6.2333   -1.1212    1.4962 C   0  0  0  0  0  4           0  0  0
  1  2  2  0     0  0
  1  3  2  0     0  0
  1  7  1  0     0  0
  1 10  1  0     0  0
  4 11  1  0     0  0
  4 20  1  0     0  0
  5 11  2  0     0  0
  5 12  1  0     0  0
  6 12  2  0     0  0
  6 13  1  0     0  0
  8 12  1  0     0  0
  8 14  1  0     0  0
  9 13  1  0     0  0
 10 15  2  0     0  0
 10 16  1  0     0  0
 11 17  1  0     0  0
 13 17  2  0     0  0
 14 18  2  0     0  0
 14 19  1  0     0  0
 15 18  1  0     0  0
 16 19  2  0     0  0
 20 21  1  0     0  0
 21 22  1  0     0  0
 21 23  1  0     0  0
 22 24  1  0     0  0
 23 25  1  0     0  0
 24 26  1  0     0  0
 25 26  1  0     0  0
M  END
> <Compound >
11

> <standard_type>
pIC50

> <# Confs.>
25

> <canonical_smiles>
NC1=CC(OCC2CCCCC2)=NC(NC3=CC=C(S(=O)(N)=O)C=C3)=N1

> <standard_relation>
=

> <predicted_activity_value>
5.566486179335457

> <actual_activity_value>
5.533132379645891

> <Publication ID>
nan

> <standard_units>
nM

> hash
10879493924106730428

$$$$
10
XXILIB    08252103513D 0   0.00000     0.00000

 26 28  0     1  0            999 V2000
   -8.6932    0.0695    3.2087 S   0  0  2  0  0  6           0  0  0
   -9.2766   -1.0362    2.4744 O   0  0  0  0  0  2           0  0  0
   -8.8763    0.1905    4.6418 O   0  0  0  0  0  2           0  0  0
    1.3868    0.0000    0.0000 O   0  0  0  0  0  2           0  0  0
   -0.6847    0.0000    1.1639 N   0  0  0  0  0  3           0  0  0
   -2.7069    0.0043   -0.0944 N   0  0  0  0  0  3           0  0  0
   -9.1312    1.5365    2.4592 N   0  0  0  0  0  3           0  0  0
   -2.8030    0.0049    2.2606 N   0  0  0  0  0  3           0  0  0
   -2.6687    0.0271   -2.4653 N   0  0  0  0  0  3           0  0  0
   -6.9577    0.0591    2.8939 C   0  0  0  0  0  4           0  0  0
    0.0000    0.0000    0.0000 C   0  0  0  0  0  4           0  0  0
   -2.0355    0.0034    1.0836 C   0  0  0  0  0  4           0  0  0
   -1.9949   -0.0121   -1.2473 C   0  0  0  0  0  4           0  0  0
   -4.1878    0.0083    2.4475 C   0  0  0  0  0  4           0  0  0
   -6.1005    0.6477    3.8205 C   0  0  0  0  0  4           0  0  0
   -6.4556   -0.5633    1.7546 C   0  0  0  0  0  4           0  0  0
   -0.6104   -0.0003   -1.2374 C   0  0  0  0  0  4           0  0  0
   -4.7235    0.6225    3.5920 C   0  0  0  0  0  4           0  0  0
   -5.0752   -0.5852    1.5352 C   0  0  0  0  0  4           0  0  0
    2.0000    0.0000    1.2903 C   0  0  0  0  0  4           0  0  0
    3.5162    0.0000    1.1135 C   0  0  2  0  0  4           0  0  0
    4.2412    0.0000    2.4690 C   0  0  0  0  0  4           0  0  0
    3.9846    1.1906    0.2614 C   0  0  0  0  0  4           0  0  0
    5.7587   -0.0036    2.2925 C   0  0  0  0  0  4           0  0  0
    5.5018    1.1883    0.0823 C   0  0  0  0  0  4           0  0  0
    6.2250    1.1623    1.4256 C   0  0  0  0  0  4           0  0  0
  1  2  2  0     0  0
  1  3  2  0     0  0
  1  7  1  0     0  0
  1 10  1  0     0  0
  4 11  1  0     0  0
  4 20  1  0     0  0
  5 11  2  0     0  0
  5 12  1  0     0  0
  6 12  2  0     0  0
  6 13  1  0     0  0
  8 12  1  0     0  0
  8 14  1  0     0  0
  9 13  1  0     0  0
 10 15  2  0     0  0
 10 16  1  0     0  0
 11 17  1  0     0  0
 13 17  2  0     0  0
 14 18  2  0     0  0
 14 19  1  0     0  0
 15 18  1  0     0  0
 16 19  2  0     0  0
 20 21  1  0     0  0
 21 22  1  0     0  0
 21 23  1  0     0  0
 22 24  1  0     0  0
 23 25  1  0     0  0
 24 26  1  0     0  0
 25 26  1  0     0  0
M  END
> <Compound >
11

> <standard_type>
pIC50

> <# Confs.>
25

> <canonical_smiles>
NC1=CC(OCC2CCCCC2)=NC(NC3=CC=C(S(=O)(N)=O)C=C3)=N1

> <standard_relation>
=

> <predicted_activity_value>
5.566486179335457

> <actual_activity_value>
5.533132379645891

> <Publication ID>
nan

> <standard_units>
nM

> hash
10879493924106730428

$$$$
10
XXILIB    08252103513D 0   0.00000     0.00000

 26 28  0     1  0            999 V2000
   -8.6932    0.0695    3.2087 S   0  0  2  0  0  6           0  0  0
   -9.2766   -1.0362    2.4744 O   0  0  0  0  0  2           0  0  0
   -8.8763    0.1905    4.6418 O   0  0  0  0  0  2           0  0  0
    1.3868    0.0000    0.0000 O   0  0  0  0  0  2           0  0  0
   -0.6847    0.0000    1.1639 N   0  0  0  0  0  3           0  0  0
   -2.7069    0.0043   -0.0944 N   0  0  0  0  0  3           0  0  0
   -9.1312    1.5365    2.4592 N   0  0  0  0  0  3           0  0  0
   -2.8030    0.0049    2.2606 N   0  0  0  0  0  3           0  0  0
   -2.6687    0.0271   -2.4653 N   0  0  0  0  0  3           0  0  0
   -6.9577    0.0591    2.8939 C   0  0  0  0  0  4           0  0  0
    0.0000    0.0000    0.0000 C   0  0  0  0  0  4           0  0  0
   -2.0355    0.0034    1.0836 C   0  0  0  0  0  4           0  0  0
   -1.9949   -0.0121   -1.2473 C   0  0  0  0  0  4           0  0  0
   -4.1878    0.0083    2.4475 C   0  0  0  0  0  4           0  0  0
   -6.1005    0.6477    3.8205 C   0  0  0  0  0  4           0  0  0
   -6.4556   -0.5633    1.7546 C   0  0  0  0  0  4           0  0  0
   -0.6104   -0.0003   -1.2374 C   0  0  0  0  0  4           0  0  0
   -4.7235    0.6225    3.5920 C   0  0  0  0  0  4           0  0  0
   -5.0752   -0.5852    1.5352 C   0  0  0  0  0  4           0  0  0
    2.0000    0.0000    1.2903 C   0  0  0  0  0  4           0  0  0
    3.5162    0.0000    1.1135 C   0  0  2  0  0  4           0  0  0
    3.9928    1.2387    0.3379 C   0  0  0  0  0  4           0  0  0
    4.0028   -1.2813    0.4175 C   0  0  0  0  0  4           0  0  0
    5.5106    1.2408    0.1639 C   0  0  0  0  0  4           0  0  0
    5.5207   -1.2821    0.2436 C   0  0  0  0  0  4           0  0  0
    6.0001   -0.0411   -0.5034 C   0  0  0  0  0  4           0  0  0
  1  2  2  0     0  0
  1  3  2  0     0  0
  1  7  1  0     0  0
  1 10  1  0     0  0
  4 11  1  0     0  0
  4 20  1  0     0  0
  5 11  2  0     0  0
  5 12  1  0     0  0
  6 12  2  0     0  0
  6 13  1  0     0  0
  8 12  1  0     0  0
  8 14  1  0     0  0
  9 13  1  0     0  0
 10 15  2  0     0  0
 10 16  1  0     0  0
 11 17  1  0     0  0
 13 17  2  0     0  0
 14 18  2  0     0  0
 14 19  1  0     0  0
 15 18  1  0     0  0
 16 19  2  0     0  0
 20 21  1  0     0  0
 21 22  1  0     0  0
 21 23  1  0     0  0
 22 24  1  0     0  0
 23 25  1  0     0  0
 24 26  1  0     0  0
 25 26  1  0     0  0
M  END
> <Compound >
11

> <standard_type>
pIC50

> <# Confs.>
25

> <canonical_smiles>
NC1=CC(OCC2CCCCC2)=NC(NC3=CC=C(S(=O)(N)=O)C=C3)=N1

> <standard_relation>
=

> <predicted_activity_value>
5.566486179335457

> <actual_activity_value>
5.533132379645891

> <Publication ID>
nan

> <standard_units>
nM

> hash
10879493924106730428

$$$$
10
XXILIB    08252103513D 0   0.00000     0.00000

 26 28  0     1  0            999 V2000
   -8.6979   -0.0868    3.1765 S   0  0  2  0  0  6           0  0  0
   -9.3526    0.0587    1.8911 O   0  0  0  0  0  2           0  0  0
   -8.9635   -1.2347    4.0215 O   0  0  0  0  0  2           0  0  0
    1.3868    0.0000    0.0000 O   0  0  0  0  0  2           0  0  0
   -0.6847    0.0000    1.1639 N   0  0  0  0  0  3           0  0  0
   -2.7069    0.0043   -0.0944 N   0  0  0  0  0  3           0  0  0
   -8.9126    1.3411    4.0825 N   0  0  0  0  0  3           0  0  0
   -2.8030    0.0049    2.2606 N   0  0  0  0  0  3           0  0  0
   -2.6687    0.0271   -2.4653 N   0  0  0  0  0  3           0  0  0
   -6.9576   -0.0251    2.8961 C   0  0  0  0  0  4           0  0  0
    0.0000    0.0000    0.0000 C   0  0  0  0  0  4           0  0  0
   -2.0355    0.0034    1.0836 C   0  0  0  0  0  4           0  0  0
   -1.9949   -0.0121   -1.2473 C   0  0  0  0  0  4           0  0  0
   -4.1878    0.0083    2.4475 C   0  0  0  0  0  4           0  0  0
   -6.1040   -0.6262    3.8179 C   0  0  0  0  0  4           0  0  0
   -6.4535    0.5826    1.7497 C   0  0  0  0  0  4           0  0  0
   -0.6104   -0.0003   -1.2374 C   0  0  0  0  0  4           0  0  0
   -4.7265   -0.6039    3.5916 C   0  0  0  0  0  4           0  0  0
   -5.0729    0.5982    1.5306 C   0  0  0  0  0  4           0  0  0
    2.0000    0.0000    1.2903 C   0  0  0  0  0  4           0  0  0
    3.5162    0.0000    1.1135 C   0  0  2  0  0  4           0  0  0
    4.2412    0.0000    2.4690 C   0  0  0  0  0  4           0  0  0
    3.9846    1.1906    0.2614 C   0  0  0  0  0  4           0  0  0
    5.7587   -0.0036    2.2925 C   0  0  0  0  0  4           0  0  0
    5.5018    1.1883    0.0823 C   0  0  0  0  0  4           0  0  0
    6.2250    1.1623    1.4256 C   0  0  0  0  0  4           0  0  0
  1  2  2  0     0  0
  1  3  2  0     0  0
  1  7  1  0     0  0
  1 10  1  0     0  0
  4 11  1  0     0  0
  4 20  1  0     0  0
  5 11  2  0     0  0
  5 12  1  0     0  0
  6 12  2  0     0  0
  6 13  1  0     0  0
  8 12  1  0     0  0
  8 14  1  0     0  0
  9 13  1  0     0  0
 10 15  2  0     0  0
 10 16  1  0     0  0
 11 17  1  0     0  0
 13 17  2  0     0  0
 14 18  2  0     0  0
 14 19  1  0     0  0
 15 18  1  0     0  0
 16 19  2  0     0  0
 20 21  1  0     0  0
 21 22  1  0     0  0
 21 23  1  0     0  0
 22 24  1  0     0  0
 23 25  1  0     0  0
 24 26  1  0     0  0
 25 26  1  0     0  0
M  END
> <Compound >
11

> <standard_type>
pIC50

> <# Confs.>
25

> <canonical_smiles>
NC1=CC(OCC2CCCCC2)=NC(NC3=CC=C(S(=O)(N)=O)C=C3)=N1

> <standard_relation>
=

> <predicted_activity_value>
5.566486179335457

> <actual_activity_value>
5.533132379645891

> <Publication ID>
nan

> <standard_units>
nM

> hash
10879493924106730428

$$$$
10
XXILIB    08252103513D 0   0.00000     0.00000

 26 28  0     1  0            999 V2000
   -8.6979   -0.0868    3.1765 S   0  0  2  0  0  6           0  0  0
   -9.3526    0.0587    1.8911 O   0  0  0  0  0  2           0  0  0
   -8.9635   -1.2347    4.0215 O   0  0  0  0  0  2           0  0  0
    1.3868    0.0000    0.0000 O   0  0  0  0  0  2           0  0  0
   -0.6847    0.0000    1.1639 N   0  0  0  0  0  3           0  0  0
   -2.7069    0.0043   -0.0944 N   0  0  0  0  0  3           0  0  0
   -8.9126    1.3411    4.0825 N   0  0  0  0  0  3           0  0  0
   -2.8030    0.0049    2.2606 N   0  0  0  0  0  3           0  0  0
   -2.6687    0.0271   -2.4653 N   0  0  0  0  0  3           0  0  0
   -6.9576   -0.0251    2.8961 C   0  0  0  0  0  4           0  0  0
    0.0000    0.0000    0.0000 C   0  0  0  0  0  4           0  0  0
   -2.0355    0.0034    1.0836 C   0  0  0  0  0  4           0  0  0
   -1.9949   -0.0121   -1.2473 C   0  0  0  0  0  4           0  0  0
   -4.1878    0.0083    2.4475 C   0  0  0  0  0  4           0  0  0
   -6.1040   -0.6262    3.8179 C   0  0  0  0  0  4           0  0  0
   -6.4535    0.5826    1.7497 C   0  0  0  0  0  4           0  0  0
   -0.6104   -0.0003   -1.2374 C   0  0  0  0  0  4           0  0  0
   -4.7265   -0.6039    3.5916 C   0  0  0  0  0  4           0  0  0
   -5.0729    0.5982    1.5306 C   0  0  0  0  0  4           0  0  0
    2.0000    0.0000    1.2903 C   0  0  0  0  0  4           0  0  0
    3.5162    0.0000    1.1135 C   0  0  2  0  0  4           0  0  0
    3.9928    1.2387    0.3379 C   0  0  0  0  0  4           0  0  0
    4.0028   -1.2813    0.4175 C   0  0  0  0  0  4           0  0  0
    5.5106    1.2408    0.1639 C   0  0  0  0  0  4           0  0  0
    5.5207   -1.2821    0.2436 C   0  0  0  0  0  4           0  0  0
    6.0001   -0.0411   -0.5034 C   0  0  0  0  0  4           0  0  0
  1  2  2  0     0  0
  1  3  2  0     0  0
  1  7  1  0     0  0
  1 10  1  0     0  0
  4 11  1  0     0  0
  4 20  1  0     0  0
  5 11  2  0     0  0
  5 12  1  0     0  0
  6 12  2  0     0  0
  6 13  1  0     0  0
  8 12  1  0     0  0
  8 14  1  0     0  0
  9 13  1  0     0  0
 10 15  2  0     0  0
 10 16  1  0     0  0
 11 17  1  0     0  0
 13 17  2  0     0  0
 14 18  2  0     0  0
 14 19  1  0     0  0
 15 18  1  0     0  0
 16 19  2  0     0  0
 20 21  1  0     0  0
 21 22  1  0     0  0
 21 23  1  0     0  0
 22 24  1  0     0  0
 23 25  1  0     0  0
 24 26  1  0     0  0
 25 26  1  0     0  0
M  END
> <Compound >
11

> <standard_type>
pIC50

> <# Confs.>
25

> <canonical_smiles>
NC1=CC(OCC2CCCCC2)=NC(NC3=CC=C(S(=O)(N)=O)C=C3)=N1

> <standard_relation>
=

> <predicted_activity_value>
5.566486179335457

> <actual_activity_value>
5.533132379645891

> <Publication ID>
nan

> <standard_units>
nM

> hash
10879493924106730428

$$$$
10
XXILIB    08252103513D 0   0.00000     0.00000

 26 28  0     1  0            999 V2000
   -1.2945   -0.0510    8.0328 S   0  0  2  0  0  6           0  0  0
   -0.3859    1.0540    8.2684 O   0  0  0  0  0  2           0  0  0
   -2.5321   -0.1692    8.7787 O   0  0  0  0  0  2           0  0  0
    1.3868    0.0000   -0.0000 O   0  0  0  0  0  2           0  0  0
   -0.6847   -0.0000    1.1639 N   0  0  0  0  0  3           0  0  0
   -2.7069    0.0043   -0.0944 N   0  0  0  0  0  3           0  0  0
   -0.4337   -1.5189    8.1340 N   0  0  0  0  0  3           0  0  0
   -2.8030    0.0049    2.2606 N   0  0  0  0  0  3           0  0  0
   -2.6687    0.0271   -2.4653 N   0  0  0  0  0  3           0  0  0
   -1.7066   -0.0432    6.3178 C   0  0  0  0  0  4           0  0  0
    0.0000    0.0000    0.0000 C   0  0  0  0  0  4           0  0  0
   -2.0355    0.0034    1.0836 C   0  0  0  0  0  4           0  0  0
   -1.9949   -0.0121   -1.2473 C   0  0  0  0  0  4           0  0  0
   -2.4154    0.0035    3.6031 C   0  0  0  0  0  4           0  0  0
   -2.9009   -0.6312    5.9083 C   0  0  0  0  0  4           0  0  0
   -0.8658    0.5766    5.3977 C   0  0  0  0  0  4           0  0  0
   -0.6104   -0.0003   -1.2374 C   0  0  0  0  0  4           0  0  0
   -3.2473   -0.6080    4.5561 C   0  0  0  0  0  4           0  0  0
   -1.2220    0.5965    4.0460 C   0  0  0  0  0  4           0  0  0
    2.0000    0.0000    1.2903 C   0  0  0  0  0  4           0  0  0
    2.2108    1.4453    1.7338 C   0  0  2  0  0  4           0  0  0
    3.1167    2.2087    0.7542 C   0  0  0  0  0  4           0  0  0
    2.7866    1.5202    3.1571 C   0  0  0  0  0  4           0  0  0
    3.3250    3.6562    1.1960 C   0  0  0  0  0  4           0  0  0
    2.9945    2.9670    3.6017 C   0  0  0  0  0  4           0  0  0
    3.8724    3.7352    2.6181 C   0  0  0  0  0  4           0  0  0
  1  2  2  0     0  0
  1  3  2  0     0  0
  1  7  1  0     0  0
  1 10  1  0     0  0
  4 11  1  0     0  0
  4 20  1  0     0  0
  5 11  2  0     0  0
  5 12  1  0     0  0
  6 12  2  0     0  0
  6 13  1  0     0  0
  8 12  1  0     0  0
  8 14  1  0     0  0
  9 13  1  0     0  0
 10 15  2  0     0  0
 10 16  1  0     0  0
 11 17  1  0     0  0
 13 17  2  0     0  0
 14 18  2  0     0  0
 14 19  1  0     0  0
 15 18  1  0     0  0
 16 19  2  0     0  0
 20 21  1  0     0  0
 21 22  1  0     0  0
 21 23  1  0     0  0
 22 24  1  0     0  0
 23 25  1  0     0  0
 24 26  1  0     0  0
 25 26  1  0     0  0
M  END
> <Compound >
11

> <standard_type>
pIC50

> <# Confs.>
25

> <canonical_smiles>
NC1=CC(OCC2CCCCC2)=NC(NC3=CC=C(S(=O)(N)=O)C=C3)=N1

> <standard_relation>
=

> <predicted_activity_value>
5.566486179335457

> <actual_activity_value>
5.533132379645891

> <Publication ID>
nan

> <standard_units>
nM

> hash
10879493924106730428

$$$$
10
XXILIB    08252103513D 0   0.00000     0.00000

 26 28  0     1  0            999 V2000
   -1.2630    0.1052    8.0239 S   0  0  2  0  0  6           0  0  0
    0.1771   -0.0418    8.1047 O   0  0  0  0  0  2           0  0  0
   -1.9277    1.2549    8.6058 O   0  0  0  0  0  2           0  0  0
    1.3868   -0.0000    0.0000 O   0  0  0  0  0  2           0  0  0
   -0.6847   -0.0000    1.1639 N   0  0  0  0  0  3           0  0  0
   -2.7069    0.0043   -0.0944 N   0  0  0  0  0  3           0  0  0
   -2.0070   -1.3207    8.5884 N   0  0  0  0  0  3           0  0  0
   -2.8030    0.0049    2.2606 N   0  0  0  0  0  3           0  0  0
   -2.6687    0.0271   -2.4653 N   0  0  0  0  0  3           0  0  0
   -1.7085    0.0410    6.3185 C   0  0  0  0  0  4           0  0  0
   -0.0000    0.0000    0.0000 C   0  0  0  0  0  4           0  0  0
   -2.0355    0.0034    1.0836 C   0  0  0  0  0  4           0  0  0
   -1.9949   -0.0121   -1.2473 C   0  0  0  0  0  4           0  0  0
   -2.4154    0.0035    3.6031 C   0  0  0  0  0  4           0  0  0
   -2.8956    0.6427    5.9082 C   0  0  0  0  0  4           0  0  0
   -0.8635   -0.5694    5.3958 C   0  0  0  0  0  4           0  0  0
   -0.6104   -0.0003   -1.2374 C   0  0  0  0  0  4           0  0  0
   -3.2442    0.6185    4.5565 C   0  0  0  0  0  4           0  0  0
   -1.2201   -0.5870    4.0442 C   0  0  0  0  0  4           0  0  0
    2.0000   -0.0000    1.2903 C   0  0  0  0  0  4           0  0  0
    2.2108   -1.4453    1.7338 C   0  0  2  0  0  4           0  0  0
    2.8698   -1.5184    3.1207 C   0  0  0  0  0  4           0  0  0
    3.0420   -2.2342    0.7093 C   0  0  0  0  0  4           0  0  0
    3.0777   -2.9648    3.5665 C   0  0  0  0  0  4           0  0  0
    3.2501   -3.6814    1.1523 C   0  0  0  0  0  4           0  0  0
    3.8805   -3.7580    2.5397 C   0  0  0  0  0  4           0  0  0
  1  2  2  0     0  0
  1  3  2  0     0  0
  1  7  1  0     0  0
  1 10  1  0     0  0
  4 11  1  0     0  0
  4 20  1  0     0  0
  5 11  2  0     0  0
  5 12  1  0     0  0
  6 12  2  0     0  0
  6 13  1  0     0  0
  8 12  1  0     0  0
  8 14  1  0     0  0
  9 13  1  0     0  0
 10 15  2  0     0  0
 10 16  1  0     0  0
 11 17  1  0     0  0
 13 17  2  0     0  0
 14 18  2  0     0  0
 14 19  1  0     0  0
 15 18  1  0     0  0
 16 19  2  0     0  0
 20 21  1  0     0  0
 21 22  1  0     0  0
 21 23  1  0     0  0
 22 24  1  0     0  0
 23 25  1  0     0  0
 24 26  1  0     0  0
 25 26  1  0     0  0
M  END
> <Compound >
11

> <standard_type>
pIC50

> <# Confs.>
25

> <canonical_smiles>
NC1=CC(OCC2CCCCC2)=NC(NC3=CC=C(S(=O)(N)=O)C=C3)=N1

> <standard_relation>
=

> <predicted_activity_value>
5.566486179335457

> <actual_activity_value>
5.533132379645891

> <Publication ID>
nan

> <standard_units>
nM

> hash
10879493924106730428

$$$$
10
XXILIB    08252103513D 0   0.00000     0.00000

 26 28  0     1  0            999 V2000
   -1.2945   -0.0510    8.0328 S   0  0  2  0  0  6           0  0  0
   -0.3859    1.0540    8.2684 O   0  0  0  0  0  2           0  0  0
   -2.5321   -0.1692    8.7787 O   0  0  0  0  0  2           0  0  0
    1.3868   -0.0000    0.0000 O   0  0  0  0  0  2           0  0  0
   -0.6847   -0.0000    1.1639 N   0  0  0  0  0  3           0  0  0
   -2.7069    0.0043   -0.0944 N   0  0  0  0  0  3           0  0  0
   -0.4337   -1.5189    8.1340 N   0  0  0  0  0  3           0  0  0
   -2.8030    0.0049    2.2606 N   0  0  0  0  0  3           0  0  0
   -2.6687    0.0271   -2.4653 N   0  0  0  0  0  3           0  0  0
   -1.7066   -0.0432    6.3178 C   0  0  0  0  0  4           0  0  0
    0.0000    0.0000    0.0000 C   0  0  0  0  0  4           0  0  0
   -2.0355    0.0034    1.0836 C   0  0  0  0  0  4           0  0  0
   -1.9949   -0.0121   -1.2473 C   0  0  0  0  0  4           0  0  0
   -2.4154    0.0035    3.6031 C   0  0  0  0  0  4           0  0  0
   -2.9009   -0.6312    5.9083 C   0  0  0  0  0  4           0  0  0
   -0.8658    0.5766    5.3977 C   0  0  0  0  0  4           0  0  0
   -0.6104   -0.0003   -1.2374 C   0  0  0  0  0  4           0  0  0
   -3.2473   -0.6080    4.5561 C   0  0  0  0  0  4           0  0  0
   -1.2220    0.5965    4.0460 C   0  0  0  0  0  4           0  0  0
    2.0000   -0.0000    1.2903 C   0  0  0  0  0  4           0  0  0
    2.2108   -1.4453    1.7338 C   0  0  2  0  0  4           0  0  0
    2.8698   -1.5184    3.1207 C   0  0  0  0  0  4           0  0  0
    3.0420   -2.2342    0.7093 C   0  0  0  0  0  4           0  0  0
    3.0777   -2.9648    3.5665 C   0  0  0  0  0  4           0  0  0
    3.2501   -3.6814    1.1523 C   0  0  0  0  0  4           0  0  0
    3.8805   -3.7580    2.5397 C   0  0  0  0  0  4           0  0  0
  1  2  2  0     0  0
  1  3  2  0     0  0
  1  7  1  0     0  0
  1 10  1  0     0  0
  4 11  1  0     0  0
  4 20  1  0     0  0
  5 11  2  0     0  0
  5 12  1  0     0  0
  6 12  2  0     0  0
  6 13  1  0     0  0
  8 12  1  0     0  0
  8 14  1  0     0  0
  9 13  1  0     0  0
 10 15  2  0     0  0
 10 16  1  0     0  0
 11 17  1  0     0  0
 13 17  2  0     0  0
 14 18  2  0     0  0
 14 19  1  0     0  0
 15 18  1  0     0  0
 16 19  2  0     0  0
 20 21  1  0     0  0
 21 22  1  0     0  0
 21 23  1  0     0  0
 22 24  1  0     0  0
 23 25  1  0     0  0
 24 26  1  0     0  0
 25 26  1  0     0  0
M  END
> <Compound >
11

> <standard_type>
pIC50

> <# Confs.>
25

> <canonical_smiles>
NC1=CC(OCC2CCCCC2)=NC(NC3=CC=C(S(=O)(N)=O)C=C3)=N1

> <standard_relation>
=

> <predicted_activity_value>
5.566486179335457

> <actual_activity_value>
5.533132379645891

> <Publication ID>
nan

> <standard_units>
nM

> hash
10879493924106730428

$$$$
8
XXILIB    08252103513D 0   0.00000     0.00000

 22 23  0     1  0            999 V2000
   -2.7328    0.0327    2.3124 O   0  0  0  0  0  2           0  0  0
    5.0564   -0.0084    4.2319 O   0  0  0  0  0  2           0  0  0
   -4.8379   -0.4708   -1.0191 O   0  0  0  0  0  2           0  0  0
   -0.6711   -0.0000    1.1710 N   0  0  0  0  0  3           0  0  0
   -0.6205    0.0014   -1.2015 N   0  0  0  0  0  3           0  0  0
    1.4056   -0.0000   -0.0000 N   0  0  0  0  0  3           0  0  0
   -2.5688    0.0123   -2.5056 N   0  0  0  0  0  3           0  0  0
   -2.0226    0.0093    1.1210 C   0  0  0  0  0  4           0  0  0
    4.2224   -0.0486    3.1504 C   0  0  0  0  0  4           0  0  0
    0.0000    0.0000    0.0000 C   0  0  0  0  0  4           0  0  0
   -1.9769   -0.0123   -1.2456 C   0  0  0  0  0  4           0  0  0
    2.3186   -0.0000    1.0576 C   0  0  0  0  0  4           0  0  0
   -2.7317    0.0094   -0.0745 C   0  0  0  0  0  4           0  0  0
    4.5145   -0.6382    1.9195 C   0  0  0  0  0  4           0  0  0
    2.9800    0.5635    3.3319 C   0  0  0  0  0  4           0  0  0
    3.5701   -0.6115    0.8864 C   0  0  0  0  0  4           0  0  0
    2.0386    0.5889    2.2979 C   0  0  0  0  0  4           0  0  0
   -4.1985    0.0458   -0.1117 C   0  0  0  0  0  4           0  0  0
   -1.9393    0.0448    3.5009 C   0  0  2  0  0  4           0  0  0
    6.3244   -0.6335    4.0462 C   0  0  0  0  0  4           0  0  0
   -2.7443   -0.6617    4.5876 C   0  0  0  0  0  4           0  0  0
   -1.6455    1.4874    3.9047 C   0  0  0  0  0  4           0  0  0
  1  8  1  0     0  0
  1 19  1  0     0  0
  2  9  1  0     0  0
  2 20  1  0     0  0
  3 18  2  0     0  0
  4  8  2  0     0  0
  4 10  1  0     0  0
  5 10  2  0     0  0
  5 11  1  0     0  0
  6 10  1  0     0  0
  6 12  1  0     0  0
  7 11  1  0     0  0
  8 13  1  0     0  0
  9 14  2  0     0  0
  9 15  1  0     0  0
 11 13  2  0     0  0
 12 16  2  0     0  0
 12 17  1  0     0  0
 13 18  1  0     0  0
 14 16  1  0     0  0
 15 17  2  0     0  0
 19 21  1  0     0  0
 19 22  1  0     0  0
M  END
> <Compound >
9

> <standard_type>
pIC50

> <# Confs.>
25

> <canonical_smiles>
CC(C)OC1=NC(NC2=CC=C(OC)C=C2)=NC(N)=C1C([H])=O

> <standard_relation>
=

> <predicted_activity_value>
5.541815564429737

> <actual_activity_value>
5.7447274948966935

> <Publication ID>
nan

> <standard_units>
nM

> hash
4021364287625090966

$$$$
8
XXILIB    08252103513D 0   0.00000     0.00000

 22 23  0     1  0            999 V2000
   -2.7328    0.0327    2.3124 O   0  0  0  0  0  2           0  0  0
    5.0626   -0.0058    4.2265 O   0  0  0  0  0  2           0  0  0
   -4.8379   -0.4708   -1.0191 O   0  0  0  0  0  2           0  0  0
   -0.6711   -0.0000    1.1710 N   0  0  0  0  0  3           0  0  0
   -0.6205    0.0014   -1.2015 N   0  0  0  0  0  3           0  0  0
    1.4056    0.0000    0.0000 N   0  0  0  0  0  3           0  0  0
   -2.5688    0.0123   -2.5056 N   0  0  0  0  0  3           0  0  0
   -2.0226    0.0093    1.1210 C   0  0  0  0  0  4           0  0  0
    4.2265    0.0393    3.1469 C   0  0  0  0  0  4           0  0  0
    0.0000    0.0000    0.0000 C   0  0  0  0  0  4           0  0  0
   -1.9769   -0.0123   -1.2456 C   0  0  0  0  0  4           0  0  0
    2.3186    0.0000    1.0576 C   0  0  0  0  0  4           0  0  0
   -2.7317    0.0094   -0.0745 C   0  0  0  0  0  4           0  0  0
    4.5169    0.6326    1.9174 C   0  0  0  0  0  4           0  0  0
    2.9836   -0.5718    3.3288 C   0  0  0  0  0  4           0  0  0
    3.5701    0.6115    0.8864 C   0  0  0  0  0  4           0  0  0
    2.0395   -0.5910    2.2971 C   0  0  0  0  0  4           0  0  0
   -4.1985    0.0458   -0.1117 C   0  0  0  0  0  4           0  0  0
   -1.9393    0.0448    3.5009 C   0  0  2  0  0  4           0  0  0
    6.3312    0.6179    4.0403 C   0  0  0  0  0  4           0  0  0
   -2.7443   -0.6617    4.5876 C   0  0  0  0  0  4           0  0  0
   -1.6455    1.4874    3.9047 C   0  0  0  0  0  4           0  0  0
  1  8  1  0     0  0
  1 19  1  0     0  0
  2  9  1  0     0  0
  2 20  1  0     0  0
  3 18  2  0     0  0
  4  8  2  0     0  0
  4 10  1  0     0  0
  5 10  2  0     0  0
  5 11  1  0     0  0
  6 10  1  0     0  0
  6 12  1  0     0  0
  7 11  1  0     0  0
  8 13  1  0     0  0
  9 14  2  0     0  0
  9 15  1  0     0  0
 11 13  2  0     0  0
 12 16  2  0     0  0
 12 17  1  0     0  0
 13 18  1  0     0  0
 14 16  1  0     0  0
 15 17  2  0     0  0
 19 21  1  0     0  0
 19 22  1  0     0  0
M  END
> <Compound >
9

> <standard_type>
pIC50

> <# Confs.>
25

> <canonical_smiles>
CC(C)OC1=NC(NC2=CC=C(OC)C=C2)=NC(N)=C1C([H])=O

> <standard_relation>
=

> <predicted_activity_value>
5.541815564429737

> <actual_activity_value>
5.7447274948966935

> <Publication ID>
nan

> <standard_units>
nM

> hash
4021364287625090966

$$$$
8
XXILIB    08252103513D 0   0.00000     0.00000

 22 23  0     1  0            999 V2000
   -2.7328    0.0327    2.3124 O   0  0  0  0  0  2           0  0  0
    5.0531    0.0058    4.2348 O   0  0  0  0  0  2           0  0  0
   -4.8379   -0.4708   -1.0191 O   0  0  0  0  0  2           0  0  0
   -0.6711   -0.0000    1.1710 N   0  0  0  0  0  3           0  0  0
   -0.6205    0.0014   -1.2015 N   0  0  0  0  0  3           0  0  0
    1.4056    0.0000   -0.0000 N   0  0  0  0  0  3           0  0  0
   -2.5688    0.0123   -2.5056 N   0  0  0  0  0  3           0  0  0
   -2.0226    0.0093    1.1210 C   0  0  0  0  0  4           0  0  0
    4.1071   -0.0393    3.2500 C   0  0  0  0  0  4           0  0  0
    0.0000    0.0000    0.0000 C   0  0  0  0  0  4           0  0  0
   -1.9769   -0.0123   -1.2456 C   0  0  0  0  0  4           0  0  0
    2.3186    0.0000    1.0576 C   0  0  0  0  0  4           0  0  0
   -2.7317    0.0094   -0.0745 C   0  0  0  0  0  4           0  0  0
    2.8483   -0.6326    3.3578 C   0  0  0  0  0  4           0  0  0
    4.4684    0.5718    2.0470 C   0  0  0  0  0  4           0  0  0
    1.9666   -0.6115    2.2707 C   0  0  0  0  0  4           0  0  0
    3.5856    0.5910    0.9624 C   0  0  0  0  0  4           0  0  0
   -4.1985    0.0458   -0.1117 C   0  0  0  0  0  4           0  0  0
   -1.9393    0.0448    3.5009 C   0  0  2  0  0  4           0  0  0
    4.6837   -0.6179    5.4626 C   0  0  0  0  0  4           0  0  0
   -1.6999   -1.4089    3.8979 C   0  0  0  0  0  4           0  0  0
   -2.6865    0.7857    4.6069 C   0  0  0  0  0  4           0  0  0
  1  8  1  0     0  0
  1 19  1  0     0  0
  2  9  1  0     0  0
  2 20  1  0     0  0
  3 18  2  0     0  0
  4  8  2  0     0  0
  4 10  1  0     0  0
  5 10  2  0     0  0
  5 11  1  0     0  0
  6 10  1  0     0  0
  6 12  1  0     0  0
  7 11  1  0     0  0
  8 13  1  0     0  0
  9 14  2  0     0  0
  9 15  1  0     0  0
 11 13  2  0     0  0
 12 16  2  0     0  0
 12 17  1  0     0  0
 13 18  1  0     0  0
 14 16  1  0     0  0
 15 17  2  0     0  0
 19 21  1  0     0  0
 19 22  1  0     0  0
M  END
> <Compound >
9

> <standard_type>
pIC50

> <# Confs.>
25

> <canonical_smiles>
CC(C)OC1=NC(NC2=CC=C(OC)C=C2)=NC(N)=C1C([H])=O

> <standard_relation>
=

> <predicted_activity_value>
5.541815564429737

> <actual_activity_value>
5.7447274948966935

> <Publication ID>
nan

> <standard_units>
nM

> hash
4021364287625090966

$$$$
8
XXILIB    08252103513D 0   0.00000     0.00000

 22 23  0     1  0            999 V2000
   -2.7328    0.0327    2.3124 O   0  0  0  0  0  2           0  0  0
    5.0626    0.0058   -4.2265 O   0  0  0  0  0  2           0  0  0
   -4.8379   -0.4708   -1.0191 O   0  0  0  0  0  2           0  0  0
   -0.6711   -0.0000    1.1710 N   0  0  0  0  0  3           0  0  0
   -0.6205    0.0014   -1.2015 N   0  0  0  0  0  3           0  0  0
    1.4056   -0.0000   -0.0000 N   0  0  0  0  0  3           0  0  0
   -2.5688    0.0123   -2.5056 N   0  0  0  0  0  3           0  0  0
   -2.0226    0.0093    1.1210 C   0  0  0  0  0  4           0  0  0
    4.2265   -0.0393   -3.1469 C   0  0  0  0  0  4           0  0  0
    0.0000    0.0000    0.0000 C   0  0  0  0  0  4           0  0  0
   -1.9769   -0.0123   -1.2456 C   0  0  0  0  0  4           0  0  0
    2.3186    0.0000   -1.0576 C   0  0  0  0  0  4           0  0  0
   -2.7317    0.0094   -0.0745 C   0  0  0  0  0  4           0  0  0
    4.5169   -0.6326   -1.9174 C   0  0  0  0  0  4           0  0  0
    2.9836    0.5718   -3.3288 C   0  0  0  0  0  4           0  0  0
    3.5701   -0.6115   -0.8864 C   0  0  0  0  0  4           0  0  0
    2.0395    0.5910   -2.2971 C   0  0  0  0  0  4           0  0  0
   -4.1985    0.0458   -0.1117 C   0  0  0  0  0  4           0  0  0
   -1.9393    0.0448    3.5009 C   0  0  2  0  0  4           0  0  0
    6.3312   -0.6179   -4.0403 C   0  0  0  0  0  4           0  0  0
   -2.7443   -0.6617    4.5876 C   0  0  0  0  0  4           0  0  0
   -1.6455    1.4874    3.9047 C   0  0  0  0  0  4           0  0  0
  1  8  1  0     0  0
  1 19  1  0     0  0
  2  9  1  0     0  0
  2 20  1  0     0  0
  3 18  2  0     0  0
  4  8  2  0     0  0
  4 10  1  0     0  0
  5 10  2  0     0  0
  5 11  1  0     0  0
  6 10  1  0     0  0
  6 12  1  0     0  0
  7 11  1  0     0  0
  8 13  1  0     0  0
  9 14  2  0     0  0
  9 15  1  0     0  0
 11 13  2  0     0  0
 12 16  2  0     0  0
 12 17  1  0     0  0
 13 18  1  0     0  0
 14 16  1  0     0  0
 15 17  2  0     0  0
 19 21  1  0     0  0
 19 22  1  0     0  0
M  END
> <Compound >
9

> <standard_type>
pIC50

> <# Confs.>
25

> <canonical_smiles>
CC(C)OC1=NC(NC2=CC=C(OC)C=C2)=NC(N)=C1C([H])=O

> <standard_relation>
=

> <predicted_activity_value>
5.541815564429737

> <actual_activity_value>
5.7447274948966935

> <Publication ID>
nan

> <standard_units>
nM

> hash
4021364287625090966

$$$$
8
XXILIB    08252103513D 0   0.00000     0.00000

 22 23  0     1  0            999 V2000
   -2.7328    0.0327    2.3124 O   0  0  0  0  0  2           0  0  0
    5.0564    0.0084   -4.2319 O   0  0  0  0  0  2           0  0  0
   -4.8379   -0.4708   -1.0191 O   0  0  0  0  0  2           0  0  0
   -0.6711   -0.0000    1.1710 N   0  0  0  0  0  3           0  0  0
   -0.6205    0.0014   -1.2015 N   0  0  0  0  0  3           0  0  0
    1.4056    0.0000    0.0000 N   0  0  0  0  0  3           0  0  0
   -2.5688    0.0123   -2.5056 N   0  0  0  0  0  3           0  0  0
   -2.0226    0.0093    1.1210 C   0  0  0  0  0  4           0  0  0
    4.2224    0.0486   -3.1504 C   0  0  0  0  0  4           0  0  0
    0.0000    0.0000    0.0000 C   0  0  0  0  0  4           0  0  0
   -1.9769   -0.0123   -1.2456 C   0  0  0  0  0  4           0  0  0
    2.3186    0.0000   -1.0576 C   0  0  0  0  0  4           0  0  0
   -2.7317    0.0094   -0.0745 C   0  0  0  0  0  4           0  0  0
    4.5145    0.6382   -1.9195 C   0  0  0  0  0  4           0  0  0
    2.9800   -0.5635   -3.3319 C   0  0  0  0  0  4           0  0  0
    3.5701    0.6115   -0.8864 C   0  0  0  0  0  4           0  0  0
    2.0386   -0.5889   -2.2979 C   0  0  0  0  0  4           0  0  0
   -4.1985    0.0458   -0.1117 C   0  0  0  0  0  4           0  0  0
   -1.9393    0.0448    3.5009 C   0  0  2  0  0  4           0  0  0
    6.3244    0.6335   -4.0462 C   0  0  0  0  0  4           0  0  0
   -2.7443   -0.6617    4.5876 C   0  0  0  0  0  4           0  0  0
   -1.6455    1.4874    3.9047 C   0  0  0  0  0  4           0  0  0
  1  8  1  0     0  0
  1 19  1  0     0  0
  2  9  1  0     0  0
  2 20  1  0     0  0
  3 18  2  0     0  0
  4  8  2  0     0  0
  4 10  1  0     0  0
  5 10  2  0     0  0
  5 11  1  0     0  0
  6 10  1  0     0  0
  6 12  1  0     0  0
  7 11  1  0     0  0
  8 13  1  0     0  0
  9 14  2  0     0  0
  9 15  1  0     0  0
 11 13  2  0     0  0
 12 16  2  0     0  0
 12 17  1  0     0  0
 13 18  1  0     0  0
 14 16  1  0     0  0
 15 17  2  0     0  0
 19 21  1  0     0  0
 19 22  1  0     0  0
M  END
> <Compound >
9

> <standard_type>
pIC50

> <# Confs.>
25

> <canonical_smiles>
CC(C)OC1=NC(NC2=CC=C(OC)C=C2)=NC(N)=C1C([H])=O

> <standard_relation>
=

> <predicted_activity_value>
5.541815564429737

> <actual_activity_value>
5.7447274948966935

> <Publication ID>
nan

> <standard_units>
nM

> hash
4021364287625090966

$$$$
8
XXILIB    08252103513D 0   0.00000     0.00000

 22 23  0     1  0            999 V2000
   -2.7328    0.0327    2.3124 O   0  0  0  0  0  2           0  0  0
    5.0593    0.0084    4.2294 O   0  0  0  0  0  2           0  0  0
   -4.8379   -0.4708   -1.0191 O   0  0  0  0  0  2           0  0  0
   -0.6711   -0.0000    1.1710 N   0  0  0  0  0  3           0  0  0
   -0.6205    0.0014   -1.2015 N   0  0  0  0  0  3           0  0  0
    1.4056   -0.0000    0.0000 N   0  0  0  0  0  3           0  0  0
   -2.5688    0.0123   -2.5056 N   0  0  0  0  0  3           0  0  0
   -2.0226    0.0093    1.1210 C   0  0  0  0  0  4           0  0  0
    4.1112    0.0486    3.2465 C   0  0  0  0  0  4           0  0  0
    0.0000    0.0000    0.0000 C   0  0  0  0  0  4           0  0  0
   -1.9769   -0.0123   -1.2456 C   0  0  0  0  0  4           0  0  0
    2.3186   -0.0000    1.0576 C   0  0  0  0  0  4           0  0  0
   -2.7317    0.0094   -0.0745 C   0  0  0  0  0  4           0  0  0
    2.8507    0.6382    3.3557 C   0  0  0  0  0  4           0  0  0
    4.4720   -0.5635    2.0439 C   0  0  0  0  0  4           0  0  0
    1.9666    0.6115    2.2707 C   0  0  0  0  0  4           0  0  0
    3.5865   -0.5889    0.9616 C   0  0  0  0  0  4           0  0  0
   -4.1985    0.0458   -0.1117 C   0  0  0  0  0  4           0  0  0
   -1.9393    0.0448    3.5009 C   0  0  2  0  0  4           0  0  0
    4.6905    0.6335    5.4567 C   0  0  0  0  0  4           0  0  0
   -1.6999   -1.4089    3.8979 C   0  0  0  0  0  4           0  0  0
   -2.6865    0.7857    4.6069 C   0  0  0  0  0  4           0  0  0
  1  8  1  0     0  0
  1 19  1  0     0  0
  2  9  1  0     0  0
  2 20  1  0     0  0
  3 18  2  0     0  0
  4  8  2  0     0  0
  4 10  1  0     0  0
  5 10  2  0     0  0
  5 11  1  0     0  0
  6 10  1  0     0  0
  6 12  1  0     0  0
  7 11  1  0     0  0
  8 13  1  0     0  0
  9 14  2  0     0  0
  9 15  1  0     0  0
 11 13  2  0     0  0
 12 16  2  0     0  0
 12 17  1  0     0  0
 13 18  1  0     0  0
 14 16  1  0     0  0
 15 17  2  0     0  0
 19 21  1  0     0  0
 19 22  1  0     0  0
M  END
> <Compound >
9

> <standard_type>
pIC50

> <# Confs.>
25

> <canonical_smiles>
CC(C)OC1=NC(NC2=CC=C(OC)C=C2)=NC(N)=C1C([H])=O

> <standard_relation>
=

> <predicted_activity_value>
5.541815564429737

> <actual_activity_value>
5.7447274948966935

> <Publication ID>
nan

> <standard_units>
nM

> hash
4021364287625090966

$$$$
8
XXILIB    08252103513D 0   0.00000     0.00000

 22 23  0     1  0            999 V2000
   -2.7328    0.0327    2.3124 O   0  0  0  0  0  2           0  0  0
    5.0564   -0.0084    4.2319 O   0  0  0  0  0  2           0  0  0
   -4.8214    0.0458   -1.1658 O   0  0  0  0  0  2           0  0  0
   -0.6711   -0.0000    1.1710 N   0  0  0  0  0  3           0  0  0
   -0.6205    0.0014   -1.2015 N   0  0  0  0  0  3           0  0  0
    1.4056   -0.0000   -0.0000 N   0  0  0  0  0  3           0  0  0
   -2.5688    0.0123   -2.5056 N   0  0  0  0  0  3           0  0  0
   -2.0226    0.0093    1.1210 C   0  0  0  0  0  4           0  0  0
    4.2224   -0.0486    3.1504 C   0  0  0  0  0  4           0  0  0
    0.0000    0.0000    0.0000 C   0  0  0  0  0  4           0  0  0
   -1.9769   -0.0123   -1.2456 C   0  0  0  0  0  4           0  0  0
    2.3186   -0.0000    1.0576 C   0  0  0  0  0  4           0  0  0
   -2.7317    0.0094   -0.0745 C   0  0  0  0  0  4           0  0  0
    4.5145   -0.6382    1.9195 C   0  0  0  0  0  4           0  0  0
    2.9800    0.5635    3.3319 C   0  0  0  0  0  4           0  0  0
    3.5701   -0.6115    0.8864 C   0  0  0  0  0  4           0  0  0
    2.0386    0.5889    2.2979 C   0  0  0  0  0  4           0  0  0
   -4.1985    0.0458   -0.1117 C   0  0  0  0  0  4           0  0  0
   -2.0829    0.6895    3.4026 C   0  0  2  0  0  4           0  0  0
    6.3244   -0.6335    4.0462 C   0  0  0  0  0  4           0  0  0
   -1.2613   -0.3645    4.1388 C   0  0  0  0  0  4           0  0  0
   -3.1312    1.2965    4.3319 C   0  0  0  0  0  4           0  0  0
  1  8  1  0     0  0
  1 19  1  0     0  0
  2  9  1  0     0  0
  2 20  1  0     0  0
  3 18  2  0     0  0
  4  8  2  0     0  0
  4 10  1  0     0  0
  5 10  2  0     0  0
  5 11  1  0     0  0
  6 10  1  0     0  0
  6 12  1  0     0  0
  7 11  1  0     0  0
  8 13  1  0     0  0
  9 14  2  0     0  0
  9 15  1  0     0  0
 11 13  2  0     0  0
 12 16  2  0     0  0
 12 17  1  0     0  0
 13 18  1  0     0  0
 14 16  1  0     0  0
 15 17  2  0     0  0
 19 21  1  0     0  0
 19 22  1  0     0  0
M  END
> <Compound >
9

> <standard_type>
pIC50

> <# Confs.>
25

> <canonical_smiles>
CC(C)OC1=NC(NC2=CC=C(OC)C=C2)=NC(N)=C1C([H])=O

> <standard_relation>
=

> <predicted_activity_value>
5.541815564429737

> <actual_activity_value>
5.7447274948966935

> <Publication ID>
nan

> <standard_units>
nM

> hash
4021364287625090966

$$$$
8
XXILIB    08252103513D 0   0.00000     0.00000

 22 23  0     1  0            999 V2000
   -2.7328    0.0327    2.3124 O   0  0  0  0  0  2           0  0  0
    5.0531    0.0058    4.2348 O   0  0  0  0  0  2           0  0  0
   -4.8214    0.0458   -1.1658 O   0  0  0  0  0  2           0  0  0
   -0.6711   -0.0000    1.1710 N   0  0  0  0  0  3           0  0  0
   -0.6205    0.0014   -1.2015 N   0  0  0  0  0  3           0  0  0
    1.4056    0.0000   -0.0000 N   0  0  0  0  0  3           0  0  0
   -2.5688    0.0123   -2.5056 N   0  0  0  0  0  3           0  0  0
   -2.0226    0.0093    1.1210 C   0  0  0  0  0  4           0  0  0
    4.1071   -0.0393    3.2500 C   0  0  0  0  0  4           0  0  0
    0.0000    0.0000    0.0000 C   0  0  0  0  0  4           0  0  0
   -1.9769   -0.0123   -1.2456 C   0  0  0  0  0  4           0  0  0
    2.3186    0.0000    1.0576 C   0  0  0  0  0  4           0  0  0
   -2.7317    0.0094   -0.0745 C   0  0  0  0  0  4           0  0  0
    2.8483   -0.6326    3.3578 C   0  0  0  0  0  4           0  0  0
    4.4684    0.5718    2.0470 C   0  0  0  0  0  4           0  0  0
    1.9666   -0.6115    2.2707 C   0  0  0  0  0  4           0  0  0
    3.5856    0.5910    0.9624 C   0  0  0  0  0  4           0  0  0
   -4.1985    0.0458   -0.1117 C   0  0  0  0  0  4           0  0  0
   -2.0925   -0.6005    3.4222 C   0  0  2  0  0  4           0  0  0
    4.6837   -0.6179    5.4626 C   0  0  0  0  0  4           0  0  0
   -3.1937   -1.1417    4.3291 C   0  0  0  0  0  4           0  0  0
   -1.2372    0.4199    4.1691 C   0  0  0  0  0  4           0  0  0
  1  8  1  0     0  0
  1 19  1  0     0  0
  2  9  1  0     0  0
  2 20  1  0     0  0
  3 18  2  0     0  0
  4  8  2  0     0  0
  4 10  1  0     0  0
  5 10  2  0     0  0
  5 11  1  0     0  0
  6 10  1  0     0  0
  6 12  1  0     0  0
  7 11  1  0     0  0
  8 13  1  0     0  0
  9 14  2  0     0  0
  9 15  1  0     0  0
 11 13  2  0     0  0
 12 16  2  0     0  0
 12 17  1  0     0  0
 13 18  1  0     0  0
 14 16  1  0     0  0
 15 17  2  0     0  0
 19 21  1  0     0  0
 19 22  1  0     0  0
M  END
> <Compound >
9

> <standard_type>
pIC50

> <# Confs.>
25

> <canonical_smiles>
CC(C)OC1=NC(NC2=CC=C(OC)C=C2)=NC(N)=C1C([H])=O

> <standard_relation>
=

> <predicted_activity_value>
5.541815564429737

> <actual_activity_value>
5.7447274948966935

> <Publication ID>
nan

> <standard_units>
nM

> hash
4021364287625090966

$$$$
8
XXILIB    08252103513D 0   0.00000     0.00000

 22 23  0     1  0            999 V2000
   -2.7328    0.0327    2.3124 O   0  0  0  0  0  2           0  0  0
    5.0598   -2.1216    3.6583 O   0  0  0  0  0  2           0  0  0
   -4.8379   -0.4708   -1.0191 O   0  0  0  0  0  2           0  0  0
   -0.6711   -0.0000    1.1710 N   0  0  0  0  0  3           0  0  0
   -0.6205    0.0014   -1.2015 N   0  0  0  0  0  3           0  0  0
    1.4056    0.0000    0.0000 N   0  0  0  0  0  3           0  0  0
   -2.5688    0.0123   -2.5056 N   0  0  0  0  0  3           0  0  0
   -2.0226    0.0093    1.1210 C   0  0  0  0  0  4           0  0  0
    4.2334   -1.5751    2.7175 C   0  0  0  0  0  4           0  0  0
    0.0000    0.0000    0.0000 C   0  0  0  0  0  4           0  0  0
   -1.9769   -0.0123   -1.2456 C   0  0  0  0  0  4           0  0  0
    2.3186   -0.5288    0.9159 C   0  0  0  0  0  4           0  0  0
   -2.7317    0.0094   -0.0745 C   0  0  0  0  0  4           0  0  0
    4.6445   -0.9064    1.5634 C   0  0  0  0  0  4           0  0  0
    2.8667   -1.7190    2.9679 C   0  0  0  0  0  4           0  0  0
    3.6941   -0.3896    0.6749 C   0  0  0  0  0  4           0  0  0
    1.9194   -1.2014    2.0785 C   0  0  0  0  0  4           0  0  0
   -4.1985    0.0458   -0.1117 C   0  0  0  0  0  4           0  0  0
   -1.9393    0.0448    3.5009 C   0  0  2  0  0  4           0  0  0
    6.4547   -1.9747    3.4022 C   0  0  0  0  0  4           0  0  0
   -1.6999   -1.4089    3.8979 C   0  0  0  0  0  4           0  0  0
   -2.6865    0.7857    4.6069 C   0  0  0  0  0  4           0  0  0
  1  8  1  0     0  0
  1 19  1  0     0  0
  2  9  1  0     0  0
  2 20  1  0     0  0
  3 18  2  0     0  0
  4  8  2  0     0  0
  4 10  1  0     0  0
  5 10  2  0     0  0
  5 11  1  0     0  0
  6 10  1  0     0  0
  6 12  1  0     0  0
  7 11  1  0     0  0
  8 13  1  0     0  0
  9 14  2  0     0  0
  9 15  1  0     0  0
 11 13  2  0     0  0
 12 16  2  0     0  0
 12 17  1  0     0  0
 13 18  1  0     0  0
 14 16  1  0     0  0
 15 17  2  0     0  0
 19 21  1  0     0  0
 19 22  1  0     0  0
M  END
> <Compound >
9

> <standard_type>
pIC50

> <# Confs.>
25

> <canonical_smiles>
CC(C)OC1=NC(NC2=CC=C(OC)C=C2)=NC(N)=C1C([H])=O

> <standard_relation>
=

> <predicted_activity_value>
5.541815564429737

> <actual_activity_value>
5.7447274948966935

> <Publication ID>
nan

> <standard_units>
nM

> hash
4021364287625090966

$$$$
8
XXILIB    08252103513D 0   0.00000     0.00000

 22 23  0     1  0            999 V2000
   -2.7328    0.0327    2.3124 O   0  0  0  0  0  2           0  0  0
    5.0593    2.1220    3.6586 O   0  0  0  0  0  2           0  0  0
   -4.8379   -0.4708   -1.0191 O   0  0  0  0  0  2           0  0  0
   -0.6711   -0.0000    1.1710 N   0  0  0  0  0  3           0  0  0
   -0.6205    0.0014   -1.2015 N   0  0  0  0  0  3           0  0  0
    1.4056   -0.0000    0.0000 N   0  0  0  0  0  3           0  0  0
   -2.5688    0.0123   -2.5056 N   0  0  0  0  0  3           0  0  0
   -2.0226    0.0093    1.1210 C   0  0  0  0  0  4           0  0  0
    4.1112    1.6654    2.7872 C   0  0  0  0  0  4           0  0  0
    0.0000    0.0000    0.0000 C   0  0  0  0  0  4           0  0  0
   -1.9769   -0.0123   -1.2456 C   0  0  0  0  0  4           0  0  0
    2.3186    0.5288    0.9159 C   0  0  0  0  0  4           0  0  0
   -2.7317    0.0094   -0.0745 C   0  0  0  0  0  4           0  0  0
    2.8507    2.2305    2.5871 C   0  0  0  0  0  4           0  0  0
    4.4720    0.5339    2.0518 C   0  0  0  0  0  4           0  0  0
    1.9666    1.6650    1.6607 C   0  0  0  0  0  4           0  0  0
    3.5865   -0.0292    1.1272 C   0  0  0  0  0  4           0  0  0
   -4.1985    0.0458   -0.1117 C   0  0  0  0  0  4           0  0  0
   -1.9393    0.0448    3.5009 C   0  0  2  0  0  4           0  0  0
    4.6905    3.2770    4.4089 C   0  0  0  0  0  4           0  0  0
   -2.7443   -0.6617    4.5876 C   0  0  0  0  0  4           0  0  0
   -1.6455    1.4874    3.9047 C   0  0  0  0  0  4           0  0  0
  1  8  1  0     0  0
  1 19  1  0     0  0
  2  9  1  0     0  0
  2 20  1  0     0  0
  3 18  2  0     0  0
  4  8  2  0     0  0
  4 10  1  0     0  0
  5 10  2  0     0  0
  5 11  1  0     0  0
  6 10  1  0     0  0
  6 12  1  0     0  0
  7 11  1  0     0  0
  8 13  1  0     0  0
  9 14  2  0     0  0
  9 15  1  0     0  0
 11 13  2  0     0  0
 12 16  2  0     0  0
 12 17  1  0     0  0
 13 18  1  0     0  0
 14 16  1  0     0  0
 15 17  2  0     0  0
 19 21  1  0     0  0
 19 22  1  0     0  0
M  END
> <Compound >
9

> <standard_type>
pIC50

> <# Confs.>
25

> <canonical_smiles>
CC(C)OC1=NC(NC2=CC=C(OC)C=C2)=NC(N)=C1C([H])=O

> <standard_relation>
=

> <predicted_activity_value>
5.541815564429737

> <actual_activity_value>
5.7447274948966935

> <Publication ID>
nan

> <standard_units>
nM

> hash
4021364287625090966

$$$$
8
XXILIB    08252103513D 0   0.00000     0.00000

 22 23  0     1  0            999 V2000
   -2.7328    0.0327    2.3124 O   0  0  0  0  0  2           0  0  0
    5.0598   -0.0082    4.2290 O   0  0  0  0  0  2           0  0  0
   -4.8379   -0.4708   -1.0191 O   0  0  0  0  0  2           0  0  0
   -0.6711   -0.0000    1.1710 N   0  0  0  0  0  3           0  0  0
   -0.6205    0.0014   -1.2015 N   0  0  0  0  0  3           0  0  0
    1.4056    0.0000    0.0000 N   0  0  0  0  0  3           0  0  0
   -2.5688    0.0123   -2.5056 N   0  0  0  0  0  3           0  0  0
   -2.0226    0.0093    1.1210 C   0  0  0  0  0  4           0  0  0
    4.2334   -0.0054    3.1410 C   0  0  0  0  0  4           0  0  0
    0.0000    0.0000    0.0000 C   0  0  0  0  0  4           0  0  0
   -1.9769   -0.0123   -1.2456 C   0  0  0  0  0  4           0  0  0
    2.3186    0.0000    1.0576 C   0  0  0  0  0  4           0  0  0
   -2.7317    0.0094   -0.0745 C   0  0  0  0  0  4           0  0  0
    4.6445   -0.0032    1.8072 C   0  0  0  0  0  4           0  0  0
    2.8667   -0.0048    3.4297 C   0  0  0  0  0  4           0  0  0
    3.6941    0.0000    0.7793 C   0  0  0  0  0  4           0  0  0
    1.9194   -0.0012    2.4008 C   0  0  0  0  0  4           0  0  0
   -4.1985    0.0458   -0.1117 C   0  0  0  0  0  4           0  0  0
   -2.5017   -1.0733    3.1876 C   0  0  2  0  0  4           0  0  0
    6.4547   -0.0090    3.9337 C   0  0  0  0  0  4           0  0  0
   -3.8421   -1.7724    3.3941 C   0  0  0  0  0  4           0  0  0
   -1.9519   -0.5659    4.5183 C   0  0  0  0  0  4           0  0  0
  1  8  1  0     0  0
  1 19  1  0     0  0
  2  9  1  0     0  0
  2 20  1  0     0  0
  3 18  2  0     0  0
  4  8  2  0     0  0
  4 10  1  0     0  0
  5 10  2  0     0  0
  5 11  1  0     0  0
  6 10  1  0     0  0
  6 12  1  0     0  0
  7 11  1  0     0  0
  8 13  1  0     0  0
  9 14  2  0     0  0
  9 15  1  0     0  0
 11 13  2  0     0  0
 12 16  2  0     0  0
 12 17  1  0     0  0
 13 18  1  0     0  0
 14 16  1  0     0  0
 15 17  2  0     0  0
 19 21  1  0     0  0
 19 22  1  0     0  0
M  END
> <Compound >
9

> <standard_type>
pIC50

> <# Confs.>
25

> <canonical_smiles>
CC(C)OC1=NC(NC2=CC=C(OC)C=C2)=NC(N)=C1C([H])=O

> <standard_relation>
=

> <predicted_activity_value>
5.541815564429737

> <actual_activity_value>
5.7447274948966935

> <Publication ID>
nan

> <standard_units>
nM

> hash
4021364287625090966

$$$$
8
XXILIB    08252103513D 0   0.00000     0.00000

 22 23  0     1  0            999 V2000
   -2.7328    0.0327    2.3124 O   0  0  0  0  0  2           0  0  0
    5.0531   -2.1123    3.6703 O   0  0  0  0  0  2           0  0  0
   -4.8379   -0.4708   -1.0191 O   0  0  0  0  0  2           0  0  0
   -0.6711   -0.0000    1.1710 N   0  0  0  0  0  3           0  0  0
   -0.6205    0.0014   -1.2015 N   0  0  0  0  0  3           0  0  0
    1.4056    0.0000   -0.0000 N   0  0  0  0  0  3           0  0  0
   -2.5688    0.0123   -2.5056 N   0  0  0  0  0  3           0  0  0
   -2.0226    0.0093    1.1210 C   0  0  0  0  0  4           0  0  0
    4.1071   -1.6591    2.7949 C   0  0  0  0  0  4           0  0  0
    0.0000    0.0000    0.0000 C   0  0  0  0  0  4           0  0  0
   -1.9769   -0.0123   -1.2456 C   0  0  0  0  0  4           0  0  0
    2.3186   -0.5288    0.9159 C   0  0  0  0  0  4           0  0  0
   -2.7317    0.0094   -0.0745 C   0  0  0  0  0  4           0  0  0
    2.8483   -2.2268    2.5916 C   0  0  0  0  0  4           0  0  0
    4.4684   -0.5283    2.0586 C   0  0  0  0  0  4           0  0  0
    1.9666   -1.6650    1.6607 C   0  0  0  0  0  4           0  0  0
    3.5856    0.0306    1.1290 C   0  0  0  0  0  4           0  0  0
   -4.1985    0.0458   -0.1117 C   0  0  0  0  0  4           0  0  0
   -1.9393    0.0448    3.5009 C   0  0  2  0  0  4           0  0  0
    4.6837   -3.2664    4.4218 C   0  0  0  0  0  4           0  0  0
   -2.7443   -0.6617    4.5876 C   0  0  0  0  0  4           0  0  0
   -1.6455    1.4874    3.9047 C   0  0  0  0  0  4           0  0  0
  1  8  1  0     0  0
  1 19  1  0     0  0
  2  9  1  0     0  0
  2 20  1  0     0  0
  3 18  2  0     0  0
  4  8  2  0     0  0
  4 10  1  0     0  0
  5 10  2  0     0  0
  5 11  1  0     0  0
  6 10  1  0     0  0
  6 12  1  0     0  0
  7 11  1  0     0  0
  8 13  1  0     0  0
  9 14  2  0     0  0
  9 15  1  0     0  0
 11 13  2  0     0  0
 12 16  2  0     0  0
 12 17  1  0     0  0
 13 18  1  0     0  0
 14 16  1  0     0  0
 15 17  2  0     0  0
 19 21  1  0     0  0
 19 22  1  0     0  0
M  END
> <Compound >
9

> <standard_type>
pIC50

> <# Confs.>
25

> <canonical_smiles>
CC(C)OC1=NC(NC2=CC=C(OC)C=C2)=NC(N)=C1C([H])=O

> <standard_relation>
=

> <predicted_activity_value>
5.541815564429737

> <actual_activity_value>
5.7447274948966935

> <Publication ID>
nan

> <standard_units>
nM

> hash
4021364287625090966

$$$$
8
XXILIB    08252103513D 0   0.00000     0.00000

 22 23  0     1  0            999 V2000
   -2.7328    0.0327    2.3124 O   0  0  0  0  0  2           0  0  0
    5.0598    2.1074    3.6665 O   0  0  0  0  0  2           0  0  0
   -4.8214    0.0458   -1.1658 O   0  0  0  0  0  2           0  0  0
   -0.6711   -0.0000    1.1710 N   0  0  0  0  0  3           0  0  0
   -0.6205    0.0014   -1.2015 N   0  0  0  0  0  3           0  0  0
    1.4056    0.0000   -0.0000 N   0  0  0  0  0  3           0  0  0
   -2.5688    0.0123   -2.5056 N   0  0  0  0  0  3           0  0  0
   -2.0226    0.0093    1.1210 C   0  0  0  0  0  4           0  0  0
    4.2334    1.5659    2.7228 C   0  0  0  0  0  4           0  0  0
    0.0000    0.0000    0.0000 C   0  0  0  0  0  4           0  0  0
   -1.9769   -0.0123   -1.2456 C   0  0  0  0  0  4           0  0  0
    2.3186    0.5288    0.9159 C   0  0  0  0  0  4           0  0  0
   -2.7317    0.0094   -0.0745 C   0  0  0  0  0  4           0  0  0
    4.6445    0.9008    1.5667 C   0  0  0  0  0  4           0  0  0
    2.8667    1.7107    2.9726 C   0  0  0  0  0  4           0  0  0
    3.6941    0.3896    0.6749 C   0  0  0  0  0  4           0  0  0
    1.9194    1.1994    2.0797 C   0  0  0  0  0  4           0  0  0
   -4.1985    0.0458   -0.1117 C   0  0  0  0  0  4           0  0  0
   -1.9393    0.0448    3.5009 C   0  0  2  0  0  4           0  0  0
    6.4547    1.9591    3.4112 C   0  0  0  0  0  4           0  0  0
   -1.6999   -1.4089    3.8979 C   0  0  0  0  0  4           0  0  0
   -2.6865    0.7857    4.6069 C   0  0  0  0  0  4           0  0  0
  1  8  1  0     0  0
  1 19  1  0     0  0
  2  9  1  0     0  0
  2 20  1  0     0  0
  3 18  2  0     0  0
  4  8  2  0     0  0
  4 10  1  0     0  0
  5 10  2  0     0  0
  5 11  1  0     0  0
  6 10  1  0     0  0
  6 12  1  0     0  0
  7 11  1  0     0  0
  8 13  1  0     0  0
  9 14  2  0     0  0
  9 15  1  0     0  0
 11 13  2  0     0  0
 12 16  2  0     0  0
 12 17  1  0     0  0
 13 18  1  0     0  0
 14 16  1  0     0  0
 15 17  2  0     0  0
 19 21  1  0     0  0
 19 22  1  0     0  0
M  END
> <Compound >
9

> <standard_type>
pIC50

> <# Confs.>
25

> <canonical_smiles>
CC(C)OC1=NC(NC2=CC=C(OC)C=C2)=NC(N)=C1C([H])=O

> <standard_relation>
=

> <predicted_activity_value>
5.541815564429737

> <actual_activity_value>
5.7447274948966935

> <Publication ID>
nan

> <standard_units>
nM

> hash
4021364287625090966

$$$$
8
XXILIB    08252103513D 0   0.00000     0.00000

 22 23  0     1  0            999 V2000
   -2.7328    0.0327    2.3124 O   0  0  0  0  0  2           0  0  0
    5.0531   -0.0058   -4.2348 O   0  0  0  0  0  2           0  0  0
   -4.8379   -0.4708   -1.0191 O   0  0  0  0  0  2           0  0  0
   -0.6711   -0.0000    1.1710 N   0  0  0  0  0  3           0  0  0
   -0.6205    0.0014   -1.2015 N   0  0  0  0  0  3           0  0  0
    1.4056   -0.0000    0.0000 N   0  0  0  0  0  3           0  0  0
   -2.5688    0.0123   -2.5056 N   0  0  0  0  0  3           0  0  0
   -2.0226    0.0093    1.1210 C   0  0  0  0  0  4           0  0  0
    4.1071    0.0393   -3.2500 C   0  0  0  0  0  4           0  0  0
    0.0000    0.0000    0.0000 C   0  0  0  0  0  4           0  0  0
   -1.9769   -0.0123   -1.2456 C   0  0  0  0  0  4           0  0  0
    2.3186    0.0000   -1.0576 C   0  0  0  0  0  4           0  0  0
   -2.7317    0.0094   -0.0745 C   0  0  0  0  0  4           0  0  0
    2.8483    0.6326   -3.3578 C   0  0  0  0  0  4           0  0  0
    4.4684   -0.5718   -2.0470 C   0  0  0  0  0  4           0  0  0
    1.9666    0.6115   -2.2707 C   0  0  0  0  0  4           0  0  0
    3.5856   -0.5910   -0.9624 C   0  0  0  0  0  4           0  0  0
   -4.1985    0.0458   -0.1117 C   0  0  0  0  0  4           0  0  0
   -1.9393    0.0448    3.5009 C   0  0  2  0  0  4           0  0  0
    4.6837    0.6179   -5.4626 C   0  0  0  0  0  4           0  0  0
   -1.6999   -1.4089    3.8979 C   0  0  0  0  0  4           0  0  0
   -2.6865    0.7857    4.6069 C   0  0  0  0  0  4           0  0  0
  1  8  1  0     0  0
  1 19  1  0     0  0
  2  9  1  0     0  0
  2 20  1  0     0  0
  3 18  2  0     0  0
  4  8  2  0     0  0
  4 10  1  0     0  0
  5 10  2  0     0  0
  5 11  1  0     0  0
  6 10  1  0     0  0
  6 12  1  0     0  0
  7 11  1  0     0  0
  8 13  1  0     0  0
  9 14  2  0     0  0
  9 15  1  0     0  0
 11 13  2  0     0  0
 12 16  2  0     0  0
 12 17  1  0     0  0
 13 18  1  0     0  0
 14 16  1  0     0  0
 15 17  2  0     0  0
 19 21  1  0     0  0
 19 22  1  0     0  0
M  END
> <Compound >
9

> <standard_type>
pIC50

> <# Confs.>
25

> <canonical_smiles>
CC(C)OC1=NC(NC2=CC=C(OC)C=C2)=NC(N)=C1C([H])=O

> <standard_relation>
=

> <predicted_activity_value>
5.541815564429737

> <actual_activity_value>
5.7447274948966935

> <Publication ID>
nan

> <standard_units>
nM

> hash
4021364287625090966

$$$$
8
XXILIB    08252103513D 0   0.00000     0.00000

 22 23  0     1  0            999 V2000
   -2.7328    0.0327    2.3124 O   0  0  0  0  0  2           0  0  0
    5.0626   -0.0058    4.2265 O   0  0  0  0  0  2           0  0  0
   -4.8214    0.0458   -1.1658 O   0  0  0  0  0  2           0  0  0
   -0.6711   -0.0000    1.1710 N   0  0  0  0  0  3           0  0  0
   -0.6205    0.0014   -1.2015 N   0  0  0  0  0  3           0  0  0
    1.4056    0.0000    0.0000 N   0  0  0  0  0  3           0  0  0
   -2.5688    0.0123   -2.5056 N   0  0  0  0  0  3           0  0  0
   -2.0226    0.0093    1.1210 C   0  0  0  0  0  4           0  0  0
    4.2265    0.0393    3.1469 C   0  0  0  0  0  4           0  0  0
    0.0000    0.0000    0.0000 C   0  0  0  0  0  4           0  0  0
   -1.9769   -0.0123   -1.2456 C   0  0  0  0  0  4           0  0  0
    2.3186    0.0000    1.0576 C   0  0  0  0  0  4           0  0  0
   -2.7317    0.0094   -0.0745 C   0  0  0  0  0  4           0  0  0
    4.5169    0.6326    1.9174 C   0  0  0  0  0  4           0  0  0
    2.9836   -0.5718    3.3288 C   0  0  0  0  0  4           0  0  0
    3.5701    0.6115    0.8864 C   0  0  0  0  0  4           0  0  0
    2.0395   -0.5910    2.2971 C   0  0  0  0  0  4           0  0  0
   -4.1985    0.0458   -0.1117 C   0  0  0  0  0  4           0  0  0
   -2.4851    1.1611    3.1537 C   0  0  2  0  0  4           0  0  0
    6.3312    0.6179    4.0403 C   0  0  0  0  0  4           0  0  0
   -1.9461    0.6267    4.4773 C   0  0  0  0  0  4           0  0  0
   -3.7860    1.9283    3.3760 C   0  0  0  0  0  4           0  0  0
  1  8  1  0     0  0
  1 19  1  0     0  0
  2  9  1  0     0  0
  2 20  1  0     0  0
  3 18  2  0     0  0
  4  8  2  0     0  0
  4 10  1  0     0  0
  5 10  2  0     0  0
  5 11  1  0     0  0
  6 10  1  0     0  0
  6 12  1  0     0  0
  7 11  1  0     0  0
  8 13  1  0     0  0
  9 14  2  0     0  0
  9 15  1  0     0  0
 11 13  2  0     0  0
 12 16  2  0     0  0
 12 17  1  0     0  0
 13 18  1  0     0  0
 14 16  1  0     0  0
 15 17  2  0     0  0
 19 21  1  0     0  0
 19 22  1  0     0  0
M  END
> <Compound >
9

> <standard_type>
pIC50

> <# Confs.>
25

> <canonical_smiles>
CC(C)OC1=NC(NC2=CC=C(OC)C=C2)=NC(N)=C1C([H])=O

> <standard_relation>
=

> <predicted_activity_value>
5.541815564429737

> <actual_activity_value>
5.7447274948966935

> <Publication ID>
nan

> <standard_units>
nM

> hash
4021364287625090966

$$$$
8
XXILIB    08252103513D 0   0.00000     0.00000

 22 23  0     1  0            999 V2000
   -2.7328    0.0327    2.3124 O   0  0  0  0  0  2           0  0  0
    5.0593   -0.0084   -4.2294 O   0  0  0  0  0  2           0  0  0
   -4.8379   -0.4708   -1.0191 O   0  0  0  0  0  2           0  0  0
   -0.6711   -0.0000    1.1710 N   0  0  0  0  0  3           0  0  0
   -0.6205    0.0014   -1.2015 N   0  0  0  0  0  3           0  0  0
    1.4056    0.0000    0.0000 N   0  0  0  0  0  3           0  0  0
   -2.5688    0.0123   -2.5056 N   0  0  0  0  0  3           0  0  0
   -2.0226    0.0093    1.1210 C   0  0  0  0  0  4           0  0  0
    4.1112   -0.0486   -3.2465 C   0  0  0  0  0  4           0  0  0
    0.0000    0.0000    0.0000 C   0  0  0  0  0  4           0  0  0
   -1.9769   -0.0123   -1.2456 C   0  0  0  0  0  4           0  0  0
    2.3186    0.0000   -1.0576 C   0  0  0  0  0  4           0  0  0
   -2.7317    0.0094   -0.0745 C   0  0  0  0  0  4           0  0  0
    2.8507   -0.6382   -3.3557 C   0  0  0  0  0  4           0  0  0
    4.4720    0.5635   -2.0439 C   0  0  0  0  0  4           0  0  0
    1.9666   -0.6115   -2.2707 C   0  0  0  0  0  4           0  0  0
    3.5865    0.5889   -0.9616 C   0  0  0  0  0  4           0  0  0
   -4.1985    0.0458   -0.1117 C   0  0  0  0  0  4           0  0  0
   -1.9393    0.0448    3.5009 C   0  0  2  0  0  4           0  0  0
    4.6905   -0.6335   -5.4567 C   0  0  0  0  0  4           0  0  0
   -1.6999   -1.4089    3.8979 C   0  0  0  0  0  4           0  0  0
   -2.6865    0.7857    4.6069 C   0  0  0  0  0  4           0  0  0
  1  8  1  0     0  0
  1 19  1  0     0  0
  2  9  1  0     0  0
  2 20  1  0     0  0
  3 18  2  0     0  0
  4  8  2  0     0  0
  4 10  1  0     0  0
  5 10  2  0     0  0
  5 11  1  0     0  0
  6 10  1  0     0  0
  6 12  1  0     0  0
  7 11  1  0     0  0
  8 13  1  0     0  0
  9 14  2  0     0  0
  9 15  1  0     0  0
 11 13  2  0     0  0
 12 16  2  0     0  0
 12 17  1  0     0  0
 13 18  1  0     0  0
 14 16  1  0     0  0
 15 17  2  0     0  0
 19 21  1  0     0  0
 19 22  1  0     0  0
M  END
> <Compound >
9

> <standard_type>
pIC50

> <# Confs.>
25

> <canonical_smiles>
CC(C)OC1=NC(NC2=CC=C(OC)C=C2)=NC(N)=C1C([H])=O

> <standard_relation>
=

> <predicted_activity_value>
5.541815564429737

> <actual_activity_value>
5.7447274948966935

> <Publication ID>
nan

> <standard_units>
nM

> hash
4021364287625090966

$$$$
8
XXILIB    08252103513D 0   0.00000     0.00000

 22 23  0     1  0            999 V2000
   -2.7328    0.0327    2.3124 O   0  0  0  0  0  2           0  0  0
    5.0564    2.1087    3.6691 O   0  0  0  0  0  2           0  0  0
   -4.8379   -0.4708   -1.0191 O   0  0  0  0  0  2           0  0  0
   -0.6711   -0.0000    1.1710 N   0  0  0  0  0  3           0  0  0
   -0.6205    0.0014   -1.2015 N   0  0  0  0  0  3           0  0  0
    1.4056   -0.0000   -0.0000 N   0  0  0  0  0  3           0  0  0
   -2.5688    0.0123   -2.5056 N   0  0  0  0  0  3           0  0  0
   -2.0226    0.0093    1.1210 C   0  0  0  0  0  4           0  0  0
    4.2224    1.5331    2.7527 C   0  0  0  0  0  4           0  0  0
    0.0000    0.0000    0.0000 C   0  0  0  0  0  4           0  0  0
   -1.9769   -0.0123   -1.2456 C   0  0  0  0  0  4           0  0  0
    2.3186    0.5288    0.9159 C   0  0  0  0  0  4           0  0  0
   -2.7317    0.0094   -0.0745 C   0  0  0  0  0  4           0  0  0
    4.5145    0.4071    1.9814 C   0  0  0  0  0  4           0  0  0
    2.9800    2.1540    2.6038 C   0  0  0  0  0  4           0  0  0
    3.5701   -0.0864    1.0734 C   0  0  0  0  0  4           0  0  0
    2.0386    1.6590    1.6955 C   0  0  0  0  0  4           0  0  0
   -4.1985    0.0458   -0.1117 C   0  0  0  0  0  4           0  0  0
   -2.0925   -0.6005    3.4222 C   0  0  2  0  0  4           0  0  0
    6.3244    1.4745    3.8209 C   0  0  0  0  0  4           0  0  0
   -3.1937   -1.1417    4.3291 C   0  0  0  0  0  4           0  0  0
   -1.2372    0.4199    4.1691 C   0  0  0  0  0  4           0  0  0
  1  8  1  0     0  0
  1 19  1  0     0  0
  2  9  1  0     0  0
  2 20  1  0     0  0
  3 18  2  0     0  0
  4  8  2  0     0  0
  4 10  1  0     0  0
  5 10  2  0     0  0
  5 11  1  0     0  0
  6 10  1  0     0  0
  6 12  1  0     0  0
  7 11  1  0     0  0
  8 13  1  0     0  0
  9 14  2  0     0  0
  9 15  1  0     0  0
 11 13  2  0     0  0
 12 16  2  0     0  0
 12 17  1  0     0  0
 13 18  1  0     0  0
 14 16  1  0     0  0
 15 17  2  0     0  0
 19 21  1  0     0  0
 19 22  1  0     0  0
M  END
> <Compound >
9

> <standard_type>
pIC50

> <# Confs.>
25

> <canonical_smiles>
CC(C)OC1=NC(NC2=CC=C(OC)C=C2)=NC(N)=C1C([H])=O

> <standard_relation>
=

> <predicted_activity_value>
5.541815564429737

> <actual_activity_value>
5.7447274948966935

> <Publication ID>
nan

> <standard_units>
nM

> hash
4021364287625090966

$$$$
8
XXILIB    08252103513D 0   0.00000     0.00000

 22 23  0     1  0            999 V2000
   -2.7328    0.0327    2.3124 O   0  0  0  0  0  2           0  0  0
    5.0626    0.0058   -4.2265 O   0  0  0  0  0  2           0  0  0
   -4.8214    0.0458   -1.1658 O   0  0  0  0  0  2           0  0  0
   -0.6711   -0.0000    1.1710 N   0  0  0  0  0  3           0  0  0
   -0.6205    0.0014   -1.2015 N   0  0  0  0  0  3           0  0  0
    1.4056   -0.0000   -0.0000 N   0  0  0  0  0  3           0  0  0
   -2.5688    0.0123   -2.5056 N   0  0  0  0  0  3           0  0  0
   -2.0226    0.0093    1.1210 C   0  0  0  0  0  4           0  0  0
    4.2265   -0.0393   -3.1469 C   0  0  0  0  0  4           0  0  0
    0.0000    0.0000    0.0000 C   0  0  0  0  0  4           0  0  0
   -1.9769   -0.0123   -1.2456 C   0  0  0  0  0  4           0  0  0
    2.3186    0.0000   -1.0576 C   0  0  0  0  0  4           0  0  0
   -2.7317    0.0094   -0.0745 C   0  0  0  0  0  4           0  0  0
    4.5169   -0.6326   -1.9174 C   0  0  0  0  0  4           0  0  0
    2.9836    0.5718   -3.3288 C   0  0  0  0  0  4           0  0  0
    3.5701   -0.6115   -0.8864 C   0  0  0  0  0  4           0  0  0
    2.0395    0.5910   -2.2971 C   0  0  0  0  0  4           0  0  0
   -4.1985    0.0458   -0.1117 C   0  0  0  0  0  4           0  0  0
   -2.0829    0.6895    3.4026 C   0  0  2  0  0  4           0  0  0
    6.3312   -0.6179   -4.0403 C   0  0  0  0  0  4           0  0  0
   -1.2613   -0.3645    4.1388 C   0  0  0  0  0  4           0  0  0
   -3.1312    1.2965    4.3319 C   0  0  0  0  0  4           0  0  0
  1  8  1  0     0  0
  1 19  1  0     0  0
  2  9  1  0     0  0
  2 20  1  0     0  0
  3 18  2  0     0  0
  4  8  2  0     0  0
  4 10  1  0     0  0
  5 10  2  0     0  0
  5 11  1  0     0  0
  6 10  1  0     0  0
  6 12  1  0     0  0
  7 11  1  0     0  0
  8 13  1  0     0  0
  9 14  2  0     0  0
  9 15  1  0     0  0
 11 13  2  0     0  0
 12 16  2  0     0  0
 12 17  1  0     0  0
 13 18  1  0     0  0
 14 16  1  0     0  0
 15 17  2  0     0  0
 19 21  1  0     0  0
 19 22  1  0     0  0
M  END
> <Compound >
9

> <standard_type>
pIC50

> <# Confs.>
25

> <canonical_smiles>
CC(C)OC1=NC(NC2=CC=C(OC)C=C2)=NC(N)=C1C([H])=O

> <standard_relation>
=

> <predicted_activity_value>
5.541815564429737

> <actual_activity_value>
5.7447274948966935

> <Publication ID>
nan

> <standard_units>
nM

> hash
4021364287625090966

$$$$
8
XXILIB    08252103513D 0   0.00000     0.00000

 22 23  0     1  0            999 V2000
   -2.7328    0.0327    2.3124 O   0  0  0  0  0  2           0  0  0
    5.0564    0.0084   -4.2319 O   0  0  0  0  0  2           0  0  0
   -4.8214    0.0458   -1.1658 O   0  0  0  0  0  2           0  0  0
   -0.6711   -0.0000    1.1710 N   0  0  0  0  0  3           0  0  0
   -0.6205    0.0014   -1.2015 N   0  0  0  0  0  3           0  0  0
    1.4056    0.0000    0.0000 N   0  0  0  0  0  3           0  0  0
   -2.5688    0.0123   -2.5056 N   0  0  0  0  0  3           0  0  0
   -2.0226    0.0093    1.1210 C   0  0  0  0  0  4           0  0  0
    4.2224    0.0486   -3.1504 C   0  0  0  0  0  4           0  0  0
    0.0000    0.0000    0.0000 C   0  0  0  0  0  4           0  0  0
   -1.9769   -0.0123   -1.2456 C   0  0  0  0  0  4           0  0  0
    2.3186    0.0000   -1.0576 C   0  0  0  0  0  4           0  0  0
   -2.7317    0.0094   -0.0745 C   0  0  0  0  0  4           0  0  0
    4.5145    0.6382   -1.9195 C   0  0  0  0  0  4           0  0  0
    2.9800   -0.5635   -3.3319 C   0  0  0  0  0  4           0  0  0
    3.5701    0.6115   -0.8864 C   0  0  0  0  0  4           0  0  0
    2.0386   -0.5889   -2.2979 C   0  0  0  0  0  4           0  0  0
   -4.1985    0.0458   -0.1117 C   0  0  0  0  0  4           0  0  0
   -2.0829    0.6895    3.4026 C   0  0  2  0  0  4           0  0  0
    6.3244    0.6335   -4.0462 C   0  0  0  0  0  4           0  0  0
   -1.2613   -0.3645    4.1388 C   0  0  0  0  0  4           0  0  0
   -3.1312    1.2965    4.3319 C   0  0  0  0  0  4           0  0  0
  1  8  1  0     0  0
  1 19  1  0     0  0
  2  9  1  0     0  0
  2 20  1  0     0  0
  3 18  2  0     0  0
  4  8  2  0     0  0
  4 10  1  0     0  0
  5 10  2  0     0  0
  5 11  1  0     0  0
  6 10  1  0     0  0
  6 12  1  0     0  0
  7 11  1  0     0  0
  8 13  1  0     0  0
  9 14  2  0     0  0
  9 15  1  0     0  0
 11 13  2  0     0  0
 12 16  2  0     0  0
 12 17  1  0     0  0
 13 18  1  0     0  0
 14 16  1  0     0  0
 15 17  2  0     0  0
 19 21  1  0     0  0
 19 22  1  0     0  0
M  END
> <Compound >
9

> <standard_type>
pIC50

> <# Confs.>
25

> <canonical_smiles>
CC(C)OC1=NC(NC2=CC=C(OC)C=C2)=NC(N)=C1C([H])=O

> <standard_relation>
=

> <predicted_activity_value>
5.541815564429737

> <actual_activity_value>
5.7447274948966935

> <Publication ID>
nan

> <standard_units>
nM

> hash
4021364287625090966

$$$$
8
XXILIB    08252103513D 0   0.00000     0.00000

 22 23  0     1  0            999 V2000
   -2.7328    0.0327    2.3124 O   0  0  0  0  0  2           0  0  0
    5.0593    0.0084    4.2294 O   0  0  0  0  0  2           0  0  0
   -4.8214    0.0458   -1.1658 O   0  0  0  0  0  2           0  0  0
   -0.6711   -0.0000    1.1710 N   0  0  0  0  0  3           0  0  0
   -0.6205    0.0014   -1.2015 N   0  0  0  0  0  3           0  0  0
    1.4056   -0.0000    0.0000 N   0  0  0  0  0  3           0  0  0
   -2.5688    0.0123   -2.5056 N   0  0  0  0  0  3           0  0  0
   -2.0226    0.0093    1.1210 C   0  0  0  0  0  4           0  0  0
    4.1112    0.0486    3.2465 C   0  0  0  0  0  4           0  0  0
    0.0000    0.0000    0.0000 C   0  0  0  0  0  4           0  0  0
   -1.9769   -0.0123   -1.2456 C   0  0  0  0  0  4           0  0  0
    2.3186   -0.0000    1.0576 C   0  0  0  0  0  4           0  0  0
   -2.7317    0.0094   -0.0745 C   0  0  0  0  0  4           0  0  0
    2.8507    0.6382    3.3557 C   0  0  0  0  0  4           0  0  0
    4.4720   -0.5635    2.0439 C   0  0  0  0  0  4           0  0  0
    1.9666    0.6115    2.2707 C   0  0  0  0  0  4           0  0  0
    3.5865   -0.5889    0.9616 C   0  0  0  0  0  4           0  0  0
   -4.1985    0.0458   -0.1117 C   0  0  0  0  0  4           0  0  0
   -2.0829    0.6895    3.4026 C   0  0  2  0  0  4           0  0  0
    4.6905    0.6335    5.4567 C   0  0  0  0  0  4           0  0  0
   -3.0205    0.6047    4.6034 C   0  0  0  0  0  4           0  0  0
   -1.8146    2.1467    3.0348 C   0  0  0  0  0  4           0  0  0
  1  8  1  0     0  0
  1 19  1  0     0  0
  2  9  1  0     0  0
  2 20  1  0     0  0
  3 18  2  0     0  0
  4  8  2  0     0  0
  4 10  1  0     0  0
  5 10  2  0     0  0
  5 11  1  0     0  0
  6 10  1  0     0  0
  6 12  1  0     0  0
  7 11  1  0     0  0
  8 13  1  0     0  0
  9 14  2  0     0  0
  9 15  1  0     0  0
 11 13  2  0     0  0
 12 16  2  0     0  0
 12 17  1  0     0  0
 13 18  1  0     0  0
 14 16  1  0     0  0
 15 17  2  0     0  0
 19 21  1  0     0  0
 19 22  1  0     0  0
M  END
> <Compound >
9

> <standard_type>
pIC50

> <# Confs.>
25

> <canonical_smiles>
CC(C)OC1=NC(NC2=CC=C(OC)C=C2)=NC(N)=C1C([H])=O

> <standard_relation>
=

> <predicted_activity_value>
5.541815564429737

> <actual_activity_value>
5.7447274948966935

> <Publication ID>
nan

> <standard_units>
nM

> hash
4021364287625090966

$$$$
8
XXILIB    08252103513D 0   0.00000     0.00000

 22 23  0     1  0            999 V2000
   -2.7328    0.0327    2.3124 O   0  0  0  0  0  2           0  0  0
    5.0626   -0.0058    4.2265 O   0  0  0  0  0  2           0  0  0
   -4.8214    0.0458   -1.1658 O   0  0  0  0  0  2           0  0  0
   -0.6711   -0.0000    1.1710 N   0  0  0  0  0  3           0  0  0
   -0.6205    0.0014   -1.2015 N   0  0  0  0  0  3           0  0  0
    1.4056    0.0000    0.0000 N   0  0  0  0  0  3           0  0  0
   -2.5688    0.0123   -2.5056 N   0  0  0  0  0  3           0  0  0
   -2.0226    0.0093    1.1210 C   0  0  0  0  0  4           0  0  0
    4.2265    0.0393    3.1469 C   0  0  0  0  0  4           0  0  0
    0.0000    0.0000    0.0000 C   0  0  0  0  0  4           0  0  0
   -1.9769   -0.0123   -1.2456 C   0  0  0  0  0  4           0  0  0
    2.3186    0.0000    1.0576 C   0  0  0  0  0  4           0  0  0
   -2.7317    0.0094   -0.0745 C   0  0  0  0  0  4           0  0  0
    4.5169    0.6326    1.9174 C   0  0  0  0  0  4           0  0  0
    2.9836   -0.5718    3.3288 C   0  0  0  0  0  4           0  0  0
    3.5701    0.6115    0.8864 C   0  0  0  0  0  4           0  0  0
    2.0395   -0.5910    2.2971 C   0  0  0  0  0  4           0  0  0
   -4.1985    0.0458   -0.1117 C   0  0  0  0  0  4           0  0  0
   -2.0925   -0.6005    3.4222 C   0  0  2  0  0  4           0  0  0
    6.3312    0.6179    4.0403 C   0  0  0  0  0  4           0  0  0
   -1.8720   -2.0616    3.0419 C   0  0  0  0  0  4           0  0  0
   -2.9868   -0.4973    4.6552 C   0  0  0  0  0  4           0  0  0
  1  8  1  0     0  0
  1 19  1  0     0  0
  2  9  1  0     0  0
  2 20  1  0     0  0
  3 18  2  0     0  0
  4  8  2  0     0  0
  4 10  1  0     0  0
  5 10  2  0     0  0
  5 11  1  0     0  0
  6 10  1  0     0  0
  6 12  1  0     0  0
  7 11  1  0     0  0
  8 13  1  0     0  0
  9 14  2  0     0  0
  9 15  1  0     0  0
 11 13  2  0     0  0
 12 16  2  0     0  0
 12 17  1  0     0  0
 13 18  1  0     0  0
 14 16  1  0     0  0
 15 17  2  0     0  0
 19 21  1  0     0  0
 19 22  1  0     0  0
M  END
> <Compound >
9

> <standard_type>
pIC50

> <# Confs.>
25

> <canonical_smiles>
CC(C)OC1=NC(NC2=CC=C(OC)C=C2)=NC(N)=C1C([H])=O

> <standard_relation>
=

> <predicted_activity_value>
5.541815564429737

> <actual_activity_value>
5.7447274948966935

> <Publication ID>
nan

> <standard_units>
nM

> hash
4021364287625090966

$$$$
8
XXILIB    08252103513D 0   0.00000     0.00000

 22 23  0     1  0            999 V2000
   -2.7328    0.0327    2.3124 O   0  0  0  0  0  2           0  0  0
    5.0593    0.0084    4.2294 O   0  0  0  0  0  2           0  0  0
   -4.8379   -0.4708   -1.0191 O   0  0  0  0  0  2           0  0  0
   -0.6711   -0.0000    1.1710 N   0  0  0  0  0  3           0  0  0
   -0.6205    0.0014   -1.2015 N   0  0  0  0  0  3           0  0  0
    1.4056   -0.0000    0.0000 N   0  0  0  0  0  3           0  0  0
   -2.5688    0.0123   -2.5056 N   0  0  0  0  0  3           0  0  0
   -2.0226    0.0093    1.1210 C   0  0  0  0  0  4           0  0  0
    4.1112    0.0486    3.2465 C   0  0  0  0  0  4           0  0  0
    0.0000    0.0000    0.0000 C   0  0  0  0  0  4           0  0  0
   -1.9769   -0.0123   -1.2456 C   0  0  0  0  0  4           0  0  0
    2.3186   -0.0000    1.0576 C   0  0  0  0  0  4           0  0  0
   -2.7317    0.0094   -0.0745 C   0  0  0  0  0  4           0  0  0
    2.8507    0.6382    3.3557 C   0  0  0  0  0  4           0  0  0
    4.4720   -0.5635    2.0439 C   0  0  0  0  0  4           0  0  0
    1.9666    0.6115    2.2707 C   0  0  0  0  0  4           0  0  0
    3.5865   -0.5889    0.9616 C   0  0  0  0  0  4           0  0  0
   -4.1985    0.0458   -0.1117 C   0  0  0  0  0  4           0  0  0
   -2.5017   -1.0733    3.1876 C   0  0  2  0  0  4           0  0  0
    4.6905    0.6335    5.4567 C   0  0  0  0  0  4           0  0  0
   -3.5186   -2.1526    2.8282 C   0  0  0  0  0  4           0  0  0
   -2.6847   -0.6261    4.6357 C   0  0  0  0  0  4           0  0  0
  1  8  1  0     0  0
  1 19  1  0     0  0
  2  9  1  0     0  0
  2 20  1  0     0  0
  3 18  2  0     0  0
  4  8  2  0     0  0
  4 10  1  0     0  0
  5 10  2  0     0  0
  5 11  1  0     0  0
  6 10  1  0     0  0
  6 12  1  0     0  0
  7 11  1  0     0  0
  8 13  1  0     0  0
  9 14  2  0     0  0
  9 15  1  0     0  0
 11 13  2  0     0  0
 12 16  2  0     0  0
 12 17  1  0     0  0
 13 18  1  0     0  0
 14 16  1  0     0  0
 15 17  2  0     0  0
 19 21  1  0     0  0
 19 22  1  0     0  0
M  END
> <Compound >
9

> <standard_type>
pIC50

> <# Confs.>
25

> <canonical_smiles>
CC(C)OC1=NC(NC2=CC=C(OC)C=C2)=NC(N)=C1C([H])=O

> <standard_relation>
=

> <predicted_activity_value>
5.541815564429737

> <actual_activity_value>
5.7447274948966935

> <Publication ID>
nan

> <standard_units>
nM

> hash
4021364287625090966

$$$$
8
XXILIB    08252103513D 0   0.00000     0.00000

 22 23  0     1  0            999 V2000
   -2.7328    0.0327    2.3124 O   0  0  0  0  0  2           0  0  0
    5.0598   -2.1216    3.6583 O   0  0  0  0  0  2           0  0  0
   -4.8379   -0.4708   -1.0191 O   0  0  0  0  0  2           0  0  0
   -0.6711   -0.0000    1.1710 N   0  0  0  0  0  3           0  0  0
   -0.6205    0.0014   -1.2015 N   0  0  0  0  0  3           0  0  0
    1.4056    0.0000    0.0000 N   0  0  0  0  0  3           0  0  0
   -2.5688    0.0123   -2.5056 N   0  0  0  0  0  3           0  0  0
   -2.0226    0.0093    1.1210 C   0  0  0  0  0  4           0  0  0
    4.2334   -1.5751    2.7175 C   0  0  0  0  0  4           0  0  0
    0.0000    0.0000    0.0000 C   0  0  0  0  0  4           0  0  0
   -1.9769   -0.0123   -1.2456 C   0  0  0  0  0  4           0  0  0
    2.3186   -0.5288    0.9159 C   0  0  0  0  0  4           0  0  0
   -2.7317    0.0094   -0.0745 C   0  0  0  0  0  4           0  0  0
    4.6445   -0.9064    1.5634 C   0  0  0  0  0  4           0  0  0
    2.8667   -1.7190    2.9679 C   0  0  0  0  0  4           0  0  0
    3.6941   -0.3896    0.6749 C   0  0  0  0  0  4           0  0  0
    1.9194   -1.2014    2.0785 C   0  0  0  0  0  4           0  0  0
   -4.1985    0.0458   -0.1117 C   0  0  0  0  0  4           0  0  0
   -2.0829    0.6895    3.4026 C   0  0  2  0  0  4           0  0  0
    6.4547   -1.9747    3.4022 C   0  0  0  0  0  4           0  0  0
   -3.0205    0.6047    4.6034 C   0  0  0  0  0  4           0  0  0
   -1.8146    2.1467    3.0348 C   0  0  0  0  0  4           0  0  0
  1  8  1  0     0  0
  1 19  1  0     0  0
  2  9  1  0     0  0
  2 20  1  0     0  0
  3 18  2  0     0  0
  4  8  2  0     0  0
  4 10  1  0     0  0
  5 10  2  0     0  0
  5 11  1  0     0  0
  6 10  1  0     0  0
  6 12  1  0     0  0
  7 11  1  0     0  0
  8 13  1  0     0  0
  9 14  2  0     0  0
  9 15  1  0     0  0
 11 13  2  0     0  0
 12 16  2  0     0  0
 12 17  1  0     0  0
 13 18  1  0     0  0
 14 16  1  0     0  0
 15 17  2  0     0  0
 19 21  1  0     0  0
 19 22  1  0     0  0
M  END
> <Compound >
9

> <standard_type>
pIC50

> <# Confs.>
25

> <canonical_smiles>
CC(C)OC1=NC(NC2=CC=C(OC)C=C2)=NC(N)=C1C([H])=O

> <standard_relation>
=

> <predicted_activity_value>
5.541815564429737

> <actual_activity_value>
5.7447274948966935

> <Publication ID>
nan

> <standard_units>
nM

> hash
4021364287625090966

$$$$
8
XXILIB    08252103513D 0   0.00000     0.00000

 22 23  0     1  0            999 V2000
   -2.7328    0.0327    2.3124 O   0  0  0  0  0  2           0  0  0
    5.0531    2.1123   -3.6703 O   0  0  0  0  0  2           0  0  0
   -4.8379   -0.4708   -1.0191 O   0  0  0  0  0  2           0  0  0
   -0.6711   -0.0000    1.1710 N   0  0  0  0  0  3           0  0  0
   -0.6205    0.0014   -1.2015 N   0  0  0  0  0  3           0  0  0
    1.4056   -0.0000    0.0000 N   0  0  0  0  0  3           0  0  0
   -2.5688    0.0123   -2.5056 N   0  0  0  0  0  3           0  0  0
   -2.0226    0.0093    1.1210 C   0  0  0  0  0  4           0  0  0
    4.1071    1.6591   -2.7949 C   0  0  0  0  0  4           0  0  0
    0.0000    0.0000    0.0000 C   0  0  0  0  0  4           0  0  0
   -1.9769   -0.0123   -1.2456 C   0  0  0  0  0  4           0  0  0
    2.3186    0.5288   -0.9159 C   0  0  0  0  0  4           0  0  0
   -2.7317    0.0094   -0.0745 C   0  0  0  0  0  4           0  0  0
    2.8483    2.2268   -2.5916 C   0  0  0  0  0  4           0  0  0
    4.4684    0.5283   -2.0586 C   0  0  0  0  0  4           0  0  0
    1.9666    1.6650   -1.6607 C   0  0  0  0  0  4           0  0  0
    3.5856   -0.0306   -1.1290 C   0  0  0  0  0  4           0  0  0
   -4.1985    0.0458   -0.1117 C   0  0  0  0  0  4           0  0  0
   -1.9393    0.0448    3.5009 C   0  0  2  0  0  4           0  0  0
    4.6837    3.2664   -4.4218 C   0  0  0  0  0  4           0  0  0
   -2.7443   -0.6617    4.5876 C   0  0  0  0  0  4           0  0  0
   -1.6455    1.4874    3.9047 C   0  0  0  0  0  4           0  0  0
  1  8  1  0     0  0
  1 19  1  0     0  0
  2  9  1  0     0  0
  2 20  1  0     0  0
  3 18  2  0     0  0
  4  8  2  0     0  0
  4 10  1  0     0  0
  5 10  2  0     0  0
  5 11  1  0     0  0
  6 10  1  0     0  0
  6 12  1  0     0  0
  7 11  1  0     0  0
  8 13  1  0     0  0
  9 14  2  0     0  0
  9 15  1  0     0  0
 11 13  2  0     0  0
 12 16  2  0     0  0
 12 17  1  0     0  0
 13 18  1  0     0  0
 14 16  1  0     0  0
 15 17  2  0     0  0
 19 21  1  0     0  0
 19 22  1  0     0  0
M  END
> <Compound >
9

> <standard_type>
pIC50

> <# Confs.>
25

> <canonical_smiles>
CC(C)OC1=NC(NC2=CC=C(OC)C=C2)=NC(N)=C1C([H])=O

> <standard_relation>
=

> <predicted_activity_value>
5.541815564429737

> <actual_activity_value>
5.7447274948966935

> <Publication ID>
nan

> <standard_units>
nM

> hash
4021364287625090966

$$$$
8
XXILIB    08252103513D 0   0.00000     0.00000

 22 23  0     1  0            999 V2000
   -2.7328    0.0327    2.3124 O   0  0  0  0  0  2           0  0  0
    5.0598   -2.1074   -3.6665 O   0  0  0  0  0  2           0  0  0
   -4.8379   -0.4708   -1.0191 O   0  0  0  0  0  2           0  0  0
   -0.6711   -0.0000    1.1710 N   0  0  0  0  0  3           0  0  0
   -0.6205    0.0014   -1.2015 N   0  0  0  0  0  3           0  0  0
    1.4056   -0.0000    0.0000 N   0  0  0  0  0  3           0  0  0
   -2.5688    0.0123   -2.5056 N   0  0  0  0  0  3           0  0  0
   -2.0226    0.0093    1.1210 C   0  0  0  0  0  4           0  0  0
    4.2334   -1.5659   -2.7228 C   0  0  0  0  0  4           0  0  0
    0.0000    0.0000    0.0000 C   0  0  0  0  0  4           0  0  0
   -1.9769   -0.0123   -1.2456 C   0  0  0  0  0  4           0  0  0
    2.3186   -0.5288   -0.9159 C   0  0  0  0  0  4           0  0  0
   -2.7317    0.0094   -0.0745 C   0  0  0  0  0  4           0  0  0
    4.6445   -0.9008   -1.5667 C   0  0  0  0  0  4           0  0  0
    2.8667   -1.7107   -2.9726 C   0  0  0  0  0  4           0  0  0
    3.6941   -0.3896   -0.6749 C   0  0  0  0  0  4           0  0  0
    1.9194   -1.1994   -2.0797 C   0  0  0  0  0  4           0  0  0
   -4.1985    0.0458   -0.1117 C   0  0  0  0  0  4           0  0  0
   -2.0925   -0.6005    3.4222 C   0  0  2  0  0  4           0  0  0
    6.4547   -1.9591   -3.4112 C   0  0  0  0  0  4           0  0  0
   -3.0099   -1.7267    3.8893 C   0  0  0  0  0  4           0  0  0
   -1.8827    0.4177    4.5402 C   0  0  0  0  0  4           0  0  0
  1  8  1  0     0  0
  1 19  1  0     0  0
  2  9  1  0     0  0
  2 20  1  0     0  0
  3 18  2  0     0  0
  4  8  2  0     0  0
  4 10  1  0     0  0
  5 10  2  0     0  0
  5 11  1  0     0  0
  6 10  1  0     0  0
  6 12  1  0     0  0
  7 11  1  0     0  0
  8 13  1  0     0  0
  9 14  2  0     0  0
  9 15  1  0     0  0
 11 13  2  0     0  0
 12 16  2  0     0  0
 12 17  1  0     0  0
 13 18  1  0     0  0
 14 16  1  0     0  0
 15 17  2  0     0  0
 19 21  1  0     0  0
 19 22  1  0     0  0
M  END
> <Compound >
9

> <standard_type>
pIC50

> <# Confs.>
25

> <canonical_smiles>
CC(C)OC1=NC(NC2=CC=C(OC)C=C2)=NC(N)=C1C([H])=O

> <standard_relation>
=

> <predicted_activity_value>
5.541815564429737

> <actual_activity_value>
5.7447274948966935

> <Publication ID>
nan

> <standard_units>
nM

> hash
4021364287625090966

$$$$
0
XXILIB    08252103513D 0   0.00000     0.00000

 24 25  0     1  0            999 V2000
   -1.0060   -0.0891    8.0554 S   0  0  1  0  0  6           0  0  0
    0.4393    0.0217    8.0854 O   0  0  0  0  0  2           0  0  0
   -1.6805   -1.2124    8.6764 O   0  0  0  0  0  2           0  0  0
    1.3868    0.0000   -0.0000 O   0  0  0  0  0  2           0  0  0
   -0.6681    0.0015   -3.5463 O   0  0  0  0  0  2           0  0  0
   -0.6647    0.0000    1.1811 N   0  0  0  0  0  3           0  0  0
   -2.7324   -0.0023   -0.0030 N   0  0  0  0  0  3           0  0  0
   -1.6940    1.3633    8.6246 N   0  0  0  0  0  3           0  0  0
   -2.7434   -0.0034    2.3493 N   0  0  0  0  0  3           0  0  0
   -1.5076   -0.0363    6.3657 C   0  0  0  0  0  4           0  0  0
    0.0000    0.0000    0.0000 C   0  0  0  0  0  4           0  0  0
   -2.0211   -0.0020    1.1483 C   0  0  0  0  0  4           0  0  0
   -2.0338   -0.0008   -1.1579 C   0  0  0  0  0  4           0  0  0
   -2.3082   -0.0031    3.6764 C   0  0  0  0  0  4           0  0  0
   -0.6559    0.0005   -1.2158 C   0  0  0  0  0  4           0  0  0
   -0.6959    0.5739    5.4134 C   0  0  0  0  0  4           0  0  0
   -2.7072   -0.6404    5.9979 C   0  0  0  0  0  4           0  0  0
   -1.0997    0.5904    4.0752 C   0  0  0  0  0  4           0  0  0
   -3.1026   -0.6181    4.6588 C   0  0  0  0  0  4           0  0  0
   -0.0026    0.0011   -2.5199 C   0  0  0  0  0  4           0  0  0
    2.0024    0.0000    1.2897 C   0  0  1  0  0  4           0  0  0
    3.3444   -0.7289    1.1705 C   0  0  0  0  0  4           0  0  0
    2.2284    1.4426    1.7396 C   0  0  0  0  0  4           0  0  0
    3.1783   -2.1684    0.7024 C   0  0  0  0  0  4           0  0  0
  1  2  2  0     0  0
  1  3  2  0     0  0
  1  8  1  0     0  0
  1 10  1  0     0  0
  4 11  1  0     0  0
  4 21  1  0     0  0
  5 20  2  0     0  0
  6 11  2  0     0  0
  6 12  1  0     0  0
  7 12  2  0     0  0
  7 13  1  0     0  0
  9 12  1  0     0  0
  9 14  1  0     0  0
 10 16  2  0     0  0
 10 17  1  0     0  0
 11 15  1  0     0  0
 13 15  2  0     0  0
 14 18  2  0     0  0
 14 19  1  0     0  0
 15 20  1  0     0  0
 16 18  1  0     0  0
 17 19  2  0     0  0
 21 22  1  0     0  0
 21 23  1  0     0  0
 22 24  1  0     0  0
M  END
> <Compound >
1

> <standard_type>
pIC50

> <# Confs.>
25

> <canonical_smiles>
O=S(C1=CC=C(NC2=NC=C(C([H])=O)C(O[C@H](C)CC)=N2)C=C1)(N)=O

> <standard_relation>
=

> <predicted_activity_value>
7.698970004336019

> <actual_activity_value>
7.882728704344236

> <Publication ID>
Ece_2013

> <standard_units>
nM

> hash
3333761597320278432

$$$$
0
XXILIB    08252103513D 0   0.00000     0.00000

 24 25  0     1  0            999 V2000
   -1.0060   -0.0891    8.0554 S   0  0  1  0  0  6           0  0  0
   -2.2028   -0.2260    8.8621 O   0  0  0  0  0  2           0  0  0
   -0.0829    1.0081    8.2715 O   0  0  0  0  0  2           0  0  0
    1.3868    0.0000   -0.0000 O   0  0  0  0  0  2           0  0  0
   -0.6681    0.0015   -3.5463 O   0  0  0  0  0  2           0  0  0
   -0.6647    0.0000    1.1811 N   0  0  0  0  0  3           0  0  0
   -2.7324   -0.0023   -0.0030 N   0  0  0  0  0  3           0  0  0
   -0.1437   -1.5598    8.0730 N   0  0  0  0  0  3           0  0  0
   -2.7434   -0.0034    2.3493 N   0  0  0  0  0  3           0  0  0
   -1.5076   -0.0363    6.3657 C   0  0  0  0  0  4           0  0  0
    0.0000    0.0000    0.0000 C   0  0  0  0  0  4           0  0  0
   -2.0211   -0.0020    1.1483 C   0  0  0  0  0  4           0  0  0
   -2.0338   -0.0008   -1.1579 C   0  0  0  0  0  4           0  0  0
   -2.3082   -0.0031    3.6764 C   0  0  0  0  0  4           0  0  0
   -0.6559    0.0005   -1.2158 C   0  0  0  0  0  4           0  0  0
   -0.6959    0.5739    5.4134 C   0  0  0  0  0  4           0  0  0
   -2.7072   -0.6404    5.9979 C   0  0  0  0  0  4           0  0  0
   -1.0997    0.5904    4.0752 C   0  0  0  0  0  4           0  0  0
   -3.1026   -0.6181    4.6588 C   0  0  0  0  0  4           0  0  0
   -0.0026    0.0011   -2.5199 C   0  0  0  0  0  4           0  0  0
    2.0024    0.0000    1.2897 C   0  0  1  0  0  4           0  0  0
    3.3444   -0.7289    1.1705 C   0  0  0  0  0  4           0  0  0
    2.2284    1.4426    1.7396 C   0  0  0  0  0  4           0  0  0
    3.1783   -2.1684    0.7024 C   0  0  0  0  0  4           0  0  0
  1  2  2  0     0  0
  1  3  2  0     0  0
  1  8  1  0     0  0
  1 10  1  0     0  0
  4 11  1  0     0  0
  4 21  1  0     0  0
  5 20  2  0     0  0
  6 11  2  0     0  0
  6 12  1  0     0  0
  7 12  2  0     0  0
  7 13  1  0     0  0
  9 12  1  0     0  0
  9 14  1  0     0  0
 10 16  2  0     0  0
 10 17  1  0     0  0
 11 15  1  0     0  0
 13 15  2  0     0  0
 14 18  2  0     0  0
 14 19  1  0     0  0
 15 20  1  0     0  0
 16 18  1  0     0  0
 17 19  2  0     0  0
 21 22  1  0     0  0
 21 23  1  0     0  0
 22 24  1  0     0  0
M  END
> <Compound >
1

> <standard_type>
pIC50

> <# Confs.>
25

> <canonical_smiles>
O=S(C1=CC=C(NC2=NC=C(C([H])=O)C(O[C@H](C)CC)=N2)C=C1)(N)=O

> <standard_relation>
=

> <predicted_activity_value>
7.698970004336019

> <actual_activity_value>
7.882728704344236

> <Publication ID>
Ece_2013

> <standard_units>
nM

> hash
3333761597320278432

$$$$
0
XXILIB    08252103513D 0   0.00000     0.00000

 24 25  0     1  0            999 V2000
   -1.0171    0.0643    8.0590 S   0  0  1  0  0  6           0  0  0
   -1.6671    1.1985    8.6861 O   0  0  0  0  0  2           0  0  0
    0.4241   -0.0883    8.1055 O   0  0  0  0  0  2           0  0  0
    1.3868    0.0000   -0.0000 O   0  0  0  0  0  2           0  0  0
   -0.6681    0.0015   -3.5463 O   0  0  0  0  0  2           0  0  0
   -0.6647    0.0000    1.1811 N   0  0  0  0  0  3           0  0  0
   -2.7324   -0.0023   -0.0030 N   0  0  0  0  0  3           0  0  0
   -1.7519   -1.3758    8.6003 N   0  0  0  0  0  3           0  0  0
   -2.7434   -0.0034    2.3493 N   0  0  0  0  0  3           0  0  0
   -1.4987    0.0474    6.3628 C   0  0  0  0  0  4           0  0  0
    0.0000    0.0000    0.0000 C   0  0  0  0  0  4           0  0  0
   -2.0211   -0.0020    1.1483 C   0  0  0  0  0  4           0  0  0
   -2.0338   -0.0008   -1.1579 C   0  0  0  0  0  4           0  0  0
   -2.3082   -0.0031    3.6764 C   0  0  0  0  0  4           0  0  0
   -0.6559    0.0005   -1.2158 C   0  0  0  0  0  4           0  0  0
   -0.6921   -0.5725    5.4124 C   0  0  0  0  0  4           0  0  0
   -2.7082    0.6332    5.9980 C   0  0  0  0  0  4           0  0  0
   -1.0979   -0.5932    4.0749 C   0  0  0  0  0  4           0  0  0
   -3.1048    0.6082    4.6592 C   0  0  0  0  0  4           0  0  0
   -0.0026    0.0011   -2.5199 C   0  0  0  0  0  4           0  0  0
    2.0024    0.0000    1.2897 C   0  0  1  0  0  4           0  0  0
    3.3444   -0.7289    1.1705 C   0  0  0  0  0  4           0  0  0
    2.2284    1.4426    1.7396 C   0  0  0  0  0  4           0  0  0
    3.1783   -2.1684    0.7024 C   0  0  0  0  0  4           0  0  0
  1  2  2  0     0  0
  1  3  2  0     0  0
  1  8  1  0     0  0
  1 10  1  0     0  0
  4 11  1  0     0  0
  4 21  1  0     0  0
  5 20  2  0     0  0
  6 11  2  0     0  0
  6 12  1  0     0  0
  7 12  2  0     0  0
  7 13  1  0     0  0
  9 12  1  0     0  0
  9 14  1  0     0  0
 10 16  2  0     0  0
 10 17  1  0     0  0
 11 15  1  0     0  0
 13 15  2  0     0  0
 14 18  2  0     0  0
 14 19  1  0     0  0
 15 20  1  0     0  0
 16 18  1  0     0  0
 17 19  2  0     0  0
 21 22  1  0     0  0
 21 23  1  0     0  0
 22 24  1  0     0  0
M  END
> <Compound >
1

> <standard_type>
pIC50

> <# Confs.>
25

> <canonical_smiles>
O=S(C1=CC=C(NC2=NC=C(C([H])=O)C(O[C@H](C)CC)=N2)C=C1)(N)=O

> <standard_relation>
=

> <predicted_activity_value>
7.698970004336019

> <actual_activity_value>
7.882728704344236

> <Publication ID>
Ece_2013

> <standard_units>
nM

> hash
3333761597320278432

$$$$
0
XXILIB    08252103513D 0   0.00000     0.00000

 24 25  0     1  0            999 V2000
   -1.0171    0.0643    8.0590 S   0  0  1  0  0  6           0  0  0
   -0.1287   -1.0614    8.2719 O   0  0  0  0  0  2           0  0  0
   -2.2198    0.2253    8.8530 O   0  0  0  0  0  2           0  0  0
    1.3868    0.0000   -0.0000 O   0  0  0  0  0  2           0  0  0
   -0.6681    0.0015   -3.5463 O   0  0  0  0  0  2           0  0  0
   -0.6647    0.0000    1.1811 N   0  0  0  0  0  3           0  0  0
   -2.7324   -0.0023   -0.0030 N   0  0  0  0  0  3           0  0  0
   -0.1151    1.5104    8.1068 N   0  0  0  0  0  3           0  0  0
   -2.7434   -0.0034    2.3493 N   0  0  0  0  0  3           0  0  0
   -1.4987    0.0474    6.3628 C   0  0  0  0  0  4           0  0  0
    0.0000    0.0000    0.0000 C   0  0  0  0  0  4           0  0  0
   -2.0211   -0.0020    1.1483 C   0  0  0  0  0  4           0  0  0
   -2.0338   -0.0008   -1.1579 C   0  0  0  0  0  4           0  0  0
   -2.3082   -0.0031    3.6764 C   0  0  0  0  0  4           0  0  0
   -0.6559    0.0005   -1.2158 C   0  0  0  0  0  4           0  0  0
   -0.6921   -0.5725    5.4124 C   0  0  0  0  0  4           0  0  0
   -2.7082    0.6332    5.9980 C   0  0  0  0  0  4           0  0  0
   -1.0979   -0.5932    4.0749 C   0  0  0  0  0  4           0  0  0
   -3.1048    0.6082    4.6592 C   0  0  0  0  0  4           0  0  0
   -0.0026    0.0011   -2.5199 C   0  0  0  0  0  4           0  0  0
    2.0024    0.0000    1.2897 C   0  0  1  0  0  4           0  0  0
    3.3444   -0.7289    1.1705 C   0  0  0  0  0  4           0  0  0
    2.2284    1.4426    1.7396 C   0  0  0  0  0  4           0  0  0
    3.1783   -2.1684    0.7024 C   0  0  0  0  0  4           0  0  0
  1  2  2  0     0  0
  1  3  2  0     0  0
  1  8  1  0     0  0
  1 10  1  0     0  0
  4 11  1  0     0  0
  4 21  1  0     0  0
  5 20  2  0     0  0
  6 11  2  0     0  0
  6 12  1  0     0  0
  7 12  2  0     0  0
  7 13  1  0     0  0
  9 12  1  0     0  0
  9 14  1  0     0  0
 10 16  2  0     0  0
 10 17  1  0     0  0
 11 15  1  0     0  0
 13 15  2  0     0  0
 14 18  2  0     0  0
 14 19  1  0     0  0
 15 20  1  0     0  0
 16 18  1  0     0  0
 17 19  2  0     0  0
 21 22  1  0     0  0
 21 23  1  0     0  0
 22 24  1  0     0  0
M  END
> <Compound >
1

> <standard_type>
pIC50

> <# Confs.>
25

> <canonical_smiles>
O=S(C1=CC=C(NC2=NC=C(C([H])=O)C(O[C@H](C)CC)=N2)C=C1)(N)=O

> <standard_relation>
=

> <predicted_activity_value>
7.698970004336019

> <actual_activity_value>
7.882728704344236

> <Publication ID>
Ece_2013

> <standard_units>
nM

> hash
3333761597320278432

$$$$
0
XXILIB    08252103513D 0   0.00000     0.00000

 24 25  0     1  0            999 V2000
   -8.5963   -0.0792    3.5002 S   0  0  1  0  0  6           0  0  0
   -9.2019    1.0472    2.8170 O   0  0  0  0  0  2           0  0  0
   -8.7338   -0.2427    4.9343 O   0  0  0  0  0  2           0  0  0
    1.3868    0.0000   -0.0000 O   0  0  0  0  0  2           0  0  0
   -0.6681    0.0015   -3.5463 O   0  0  0  0  0  2           0  0  0
   -0.6647    0.0000    1.1811 N   0  0  0  0  0  3           0  0  0
   -2.7324   -0.0023   -0.0030 N   0  0  0  0  0  3           0  0  0
   -9.0598   -1.5243    2.7233 N   0  0  0  0  0  3           0  0  0
   -2.7434   -0.0034    2.3493 N   0  0  0  0  0  3           0  0  0
   -6.8722   -0.0598    3.1306 C   0  0  0  0  0  4           0  0  0
    0.0000    0.0000   -0.0000 C   0  0  0  0  0  4           0  0  0
   -2.0211   -0.0020    1.1483 C   0  0  0  0  0  4           0  0  0
   -2.0338   -0.0008   -1.1579 C   0  0  0  0  0  4           0  0  0
   -4.1198   -0.0055    2.5868 C   0  0  0  0  0  4           0  0  0
   -0.6559    0.0005   -1.2158 C   0  0  0  0  0  4           0  0  0
   -6.4114    0.5626    1.9737 C   0  0  0  0  0  4           0  0  0
   -5.9825   -0.6462    4.0271 C   0  0  0  0  0  4           0  0  0
   -5.0396    0.5852    1.7054 C   0  0  0  0  0  4           0  0  0
   -4.6140   -0.6194    3.7501 C   0  0  0  0  0  4           0  0  0
   -0.0026    0.0011   -2.5199 C   0  0  0  0  0  4           0  0  0
    2.0024    0.0000    1.2897 C   0  0  1  0  0  4           0  0  0
    3.3444   -0.7289    1.1705 C   0  0  0  0  0  4           0  0  0
    2.2284    1.4426    1.7396 C   0  0  0  0  0  4           0  0  0
    3.1783   -2.1684    0.7024 C   0  0  0  0  0  4           0  0  0
  1  2  2  0     0  0
  1  3  2  0     0  0
  1  8  1  0     0  0
  1 10  1  0     0  0
  4 11  1  0     0  0
  4 21  1  0     0  0
  5 20  2  0     0  0
  6 11  2  0     0  0
  6 12  1  0     0  0
  7 12  2  0     0  0
  7 13  1  0     0  0
  9 12  1  0     0  0
  9 14  1  0     0  0
 10 16  2  0     0  0
 10 17  1  0     0  0
 11 15  1  0     0  0
 13 15  2  0     0  0
 14 18  2  0     0  0
 14 19  1  0     0  0
 15 20  1  0     0  0
 16 18  1  0     0  0
 17 19  2  0     0  0
 21 22  1  0     0  0
 21 23  1  0     0  0
 22 24  1  0     0  0
M  END
> <Compound >
1

> <standard_type>
pIC50

> <# Confs.>
25

> <canonical_smiles>
O=S(C1=CC=C(NC2=NC=C(C([H])=O)C(O[C@H](C)CC)=N2)C=C1)(N)=O

> <standard_relation>
=

> <predicted_activity_value>
7.698970004336019

> <actual_activity_value>
7.882728704344236

> <Publication ID>
Ece_2013

> <standard_units>
nM

> hash
3333761597320278432

$$$$
0
XXILIB    08252103513D 0   0.00000     0.00000

 24 25  0     1  0            999 V2000
   -1.0171    0.0643    8.0590 S   0  0  1  0  0  6           0  0  0
   -1.6671    1.1985    8.6861 O   0  0  0  0  0  2           0  0  0
    0.4241   -0.0883    8.1055 O   0  0  0  0  0  2           0  0  0
    1.3868    0.0000    0.0000 O   0  0  0  0  0  2           0  0  0
   -0.6681    0.0015   -3.5463 O   0  0  0  0  0  2           0  0  0
   -0.6647    0.0000    1.1811 N   0  0  0  0  0  3           0  0  0
   -2.7324   -0.0023   -0.0030 N   0  0  0  0  0  3           0  0  0
   -1.7519   -1.3758    8.6003 N   0  0  0  0  0  3           0  0  0
   -2.7434   -0.0034    2.3493 N   0  0  0  0  0  3           0  0  0
   -1.4987    0.0474    6.3628 C   0  0  0  0  0  4           0  0  0
    0.0000    0.0000    0.0000 C   0  0  0  0  0  4           0  0  0
   -2.0211   -0.0020    1.1483 C   0  0  0  0  0  4           0  0  0
   -2.0338   -0.0008   -1.1579 C   0  0  0  0  0  4           0  0  0
   -2.3082   -0.0031    3.6764 C   0  0  0  0  0  4           0  0  0
   -0.6559    0.0005   -1.2158 C   0  0  0  0  0  4           0  0  0
   -0.6921   -0.5725    5.4124 C   0  0  0  0  0  4           0  0  0
   -2.7082    0.6332    5.9980 C   0  0  0  0  0  4           0  0  0
   -1.0979   -0.5932    4.0749 C   0  0  0  0  0  4           0  0  0
   -3.1048    0.6082    4.6592 C   0  0  0  0  0  4           0  0  0
   -0.0026    0.0011   -2.5199 C   0  0  0  0  0  4           0  0  0
    2.0024    0.0000    1.2897 C   0  0  1  0  0  4           0  0  0
    2.2050   -1.4578    1.7143 C   0  0  0  0  0  4           0  0  0
    3.3513    0.7125    1.2037 C   0  0  0  0  0  4           0  0  0
    2.8591   -1.5730    3.0846 C   0  0  0  0  0  4           0  0  0
  1  2  2  0     0  0
  1  3  2  0     0  0
  1  8  1  0     0  0
  1 10  1  0     0  0
  4 11  1  0     0  0
  4 21  1  0     0  0
  5 20  2  0     0  0
  6 11  2  0     0  0
  6 12  1  0     0  0
  7 12  2  0     0  0
  7 13  1  0     0  0
  9 12  1  0     0  0
  9 14  1  0     0  0
 10 16  2  0     0  0
 10 17  1  0     0  0
 11 15  1  0     0  0
 13 15  2  0     0  0
 14 18  2  0     0  0
 14 19  1  0     0  0
 15 20  1  0     0  0
 16 18  1  0     0  0
 17 19  2  0     0  0
 21 22  1  0     0  0
 21 23  1  0     0  0
 22 24  1  0     0  0
M  END
> <Compound >
1

> <standard_type>
pIC50

> <# Confs.>
25

> <canonical_smiles>
O=S(C1=CC=C(NC2=NC=C(C([H])=O)C(O[C@H](C)CC)=N2)C=C1)(N)=O

> <standard_relation>
=

> <predicted_activity_value>
7.698970004336019

> <actual_activity_value>
7.882728704344236

> <Publication ID>
Ece_2013

> <standard_units>
nM

> hash
3333761597320278432

$$$$
0
XXILIB    08252103513D 0   0.00000     0.00000

 24 25  0     1  0            999 V2000
   -1.0171    0.0643    8.0590 S   0  0  1  0  0  6           0  0  0
   -0.1287   -1.0614    8.2719 O   0  0  0  0  0  2           0  0  0
   -2.2198    0.2253    8.8530 O   0  0  0  0  0  2           0  0  0
    1.3868    0.0000    0.0000 O   0  0  0  0  0  2           0  0  0
   -0.6681    0.0015   -3.5463 O   0  0  0  0  0  2           0  0  0
   -0.6647    0.0000    1.1811 N   0  0  0  0  0  3           0  0  0
   -2.7324   -0.0023   -0.0030 N   0  0  0  0  0  3           0  0  0
   -0.1151    1.5104    8.1068 N   0  0  0  0  0  3           0  0  0
   -2.7434   -0.0034    2.3493 N   0  0  0  0  0  3           0  0  0
   -1.4987    0.0474    6.3628 C   0  0  0  0  0  4           0  0  0
    0.0000    0.0000    0.0000 C   0  0  0  0  0  4           0  0  0
   -2.0211   -0.0020    1.1483 C   0  0  0  0  0  4           0  0  0
   -2.0338   -0.0008   -1.1579 C   0  0  0  0  0  4           0  0  0
   -2.3082   -0.0031    3.6764 C   0  0  0  0  0  4           0  0  0
   -0.6559    0.0005   -1.2158 C   0  0  0  0  0  4           0  0  0
   -0.6921   -0.5725    5.4124 C   0  0  0  0  0  4           0  0  0
   -2.7082    0.6332    5.9980 C   0  0  0  0  0  4           0  0  0
   -1.0979   -0.5932    4.0749 C   0  0  0  0  0  4           0  0  0
   -3.1048    0.6082    4.6592 C   0  0  0  0  0  4           0  0  0
   -0.0026    0.0011   -2.5199 C   0  0  0  0  0  4           0  0  0
    2.0024    0.0000    1.2897 C   0  0  1  0  0  4           0  0  0
    2.2050   -1.4578    1.7143 C   0  0  0  0  0  4           0  0  0
    3.3513    0.7125    1.2037 C   0  0  0  0  0  4           0  0  0
    2.8591   -1.5730    3.0846 C   0  0  0  0  0  4           0  0  0
  1  2  2  0     0  0
  1  3  2  0     0  0
  1  8  1  0     0  0
  1 10  1  0     0  0
  4 11  1  0     0  0
  4 21  1  0     0  0
  5 20  2  0     0  0
  6 11  2  0     0  0
  6 12  1  0     0  0
  7 12  2  0     0  0
  7 13  1  0     0  0
  9 12  1  0     0  0
  9 14  1  0     0  0
 10 16  2  0     0  0
 10 17  1  0     0  0
 11 15  1  0     0  0
 13 15  2  0     0  0
 14 18  2  0     0  0
 14 19  1  0     0  0
 15 20  1  0     0  0
 16 18  1  0     0  0
 17 19  2  0     0  0
 21 22  1  0     0  0
 21 23  1  0     0  0
 22 24  1  0     0  0
M  END
> <Compound >
1

> <standard_type>
pIC50

> <# Confs.>
25

> <canonical_smiles>
O=S(C1=CC=C(NC2=NC=C(C([H])=O)C(O[C@H](C)CC)=N2)C=C1)(N)=O

> <standard_relation>
=

> <predicted_activity_value>
7.698970004336019

> <actual_activity_value>
7.882728704344236

> <Publication ID>
Ece_2013

> <standard_units>
nM

> hash
3333761597320278432

$$$$
0
XXILIB    08252103513D 0   0.00000     0.00000

 24 25  0     1  0            999 V2000
   -8.5985    0.0743    3.4888 S   0  0  1  0  0  6           0  0  0
   -8.7503    0.2086    4.9244 O   0  0  0  0  0  2           0  0  0
   -9.2208   -1.0223    2.7729 O   0  0  0  0  0  2           0  0  0
    1.3868    0.0000   -0.0000 O   0  0  0  0  0  2           0  0  0
   -0.6681    0.0015   -3.5463 O   0  0  0  0  0  2           0  0  0
   -0.6647    0.0000    1.1811 N   0  0  0  0  0  3           0  0  0
   -2.7324   -0.0023   -0.0030 N   0  0  0  0  0  3           0  0  0
   -9.0196    1.5459    2.7379 N   0  0  0  0  0  3           0  0  0
   -2.7434   -0.0034    2.3493 N   0  0  0  0  0  3           0  0  0
   -6.8707    0.0239    3.1400 C   0  0  0  0  0  4           0  0  0
    0.0000    0.0000   -0.0000 C   0  0  0  0  0  4           0  0  0
   -2.0211   -0.0020    1.1483 C   0  0  0  0  0  4           0  0  0
   -2.0338   -0.0008   -1.1579 C   0  0  0  0  0  4           0  0  0
   -4.1198   -0.0055    2.5868 C   0  0  0  0  0  4           0  0  0
   -0.6559    0.0005   -1.2158 C   0  0  0  0  0  4           0  0  0
   -6.4093   -0.5839    1.9756 C   0  0  0  0  0  4           0  0  0
   -5.9842    0.6273    4.0283 C   0  0  0  0  0  4           0  0  0
   -5.0378   -0.5984    1.7051 C   0  0  0  0  0  4           0  0  0
   -4.6159    0.6070    3.7500 C   0  0  0  0  0  4           0  0  0
   -0.0026    0.0011   -2.5199 C   0  0  0  0  0  4           0  0  0
    2.0024    0.0000    1.2897 C   0  0  1  0  0  4           0  0  0
    3.3444   -0.7289    1.1705 C   0  0  0  0  0  4           0  0  0
    2.2284    1.4426    1.7396 C   0  0  0  0  0  4           0  0  0
    3.1783   -2.1684    0.7024 C   0  0  0  0  0  4           0  0  0
  1  2  2  0     0  0
  1  3  2  0     0  0
  1  8  1  0     0  0
  1 10  1  0     0  0
  4 11  1  0     0  0
  4 21  1  0     0  0
  5 20  2  0     0  0
  6 11  2  0     0  0
  6 12  1  0     0  0
  7 12  2  0     0  0
  7 13  1  0     0  0
  9 12  1  0     0  0
  9 14  1  0     0  0
 10 16  2  0     0  0
 10 17  1  0     0  0
 11 15  1  0     0  0
 13 15  2  0     0  0
 14 18  2  0     0  0
 14 19  1  0     0  0
 15 20  1  0     0  0
 16 18  1  0     0  0
 17 19  2  0     0  0
 21 22  1  0     0  0
 21 23  1  0     0  0
 22 24  1  0     0  0
M  END
> <Compound >
1

> <standard_type>
pIC50

> <# Confs.>
25

> <canonical_smiles>
O=S(C1=CC=C(NC2=NC=C(C([H])=O)C(O[C@H](C)CC)=N2)C=C1)(N)=O

> <standard_relation>
=

> <predicted_activity_value>
7.698970004336019

> <actual_activity_value>
7.882728704344236

> <Publication ID>
Ece_2013

> <standard_units>
nM

> hash
3333761597320278432

$$$$
0
XXILIB    08252103513D 0   0.00000     0.00000

 24 25  0     1  0            999 V2000
   -1.0060   -0.0891    8.0554 S   0  0  1  0  0  6           0  0  0
    0.4393    0.0217    8.0854 O   0  0  0  0  0  2           0  0  0
   -1.6805   -1.2124    8.6764 O   0  0  0  0  0  2           0  0  0
    1.3868    0.0000    0.0000 O   0  0  0  0  0  2           0  0  0
   -0.6681    0.0015   -3.5463 O   0  0  0  0  0  2           0  0  0
   -0.6647    0.0000    1.1811 N   0  0  0  0  0  3           0  0  0
   -2.7324   -0.0023   -0.0030 N   0  0  0  0  0  3           0  0  0
   -1.6940    1.3633    8.6246 N   0  0  0  0  0  3           0  0  0
   -2.7434   -0.0034    2.3493 N   0  0  0  0  0  3           0  0  0
   -1.5076   -0.0363    6.3657 C   0  0  0  0  0  4           0  0  0
    0.0000    0.0000    0.0000 C   0  0  0  0  0  4           0  0  0
   -2.0211   -0.0020    1.1483 C   0  0  0  0  0  4           0  0  0
   -2.0338   -0.0008   -1.1579 C   0  0  0  0  0  4           0  0  0
   -2.3082   -0.0031    3.6764 C   0  0  0  0  0  4           0  0  0
   -0.6559    0.0005   -1.2158 C   0  0  0  0  0  4           0  0  0
   -0.6959    0.5739    5.4134 C   0  0  0  0  0  4           0  0  0
   -2.7072   -0.6404    5.9979 C   0  0  0  0  0  4           0  0  0
   -1.0997    0.5904    4.0752 C   0  0  0  0  0  4           0  0  0
   -3.1026   -0.6181    4.6588 C   0  0  0  0  0  4           0  0  0
   -0.0026    0.0011   -2.5199 C   0  0  0  0  0  4           0  0  0
    2.0024    0.0000    1.2897 C   0  0  1  0  0  4           0  0  0
    2.2050   -1.4578    1.7143 C   0  0  0  0  0  4           0  0  0
    3.3513    0.7125    1.2037 C   0  0  0  0  0  4           0  0  0
    2.8591   -1.5730    3.0846 C   0  0  0  0  0  4           0  0  0
  1  2  2  0     0  0
  1  3  2  0     0  0
  1  8  1  0     0  0
  1 10  1  0     0  0
  4 11  1  0     0  0
  4 21  1  0     0  0
  5 20  2  0     0  0
  6 11  2  0     0  0
  6 12  1  0     0  0
  7 12  2  0     0  0
  7 13  1  0     0  0
  9 12  1  0     0  0
  9 14  1  0     0  0
 10 16  2  0     0  0
 10 17  1  0     0  0
 11 15  1  0     0  0
 13 15  2  0     0  0
 14 18  2  0     0  0
 14 19  1  0     0  0
 15 20  1  0     0  0
 16 18  1  0     0  0
 17 19  2  0     0  0
 21 22  1  0     0  0
 21 23  1  0     0  0
 22 24  1  0     0  0
M  END
> <Compound >
1

> <standard_type>
pIC50

> <# Confs.>
25

> <canonical_smiles>
O=S(C1=CC=C(NC2=NC=C(C([H])=O)C(O[C@H](C)CC)=N2)C=C1)(N)=O

> <standard_relation>
=

> <predicted_activity_value>
7.698970004336019

> <actual_activity_value>
7.882728704344236

> <Publication ID>
Ece_2013

> <standard_units>
nM

> hash
3333761597320278432

$$$$
0
XXILIB    08252103513D 0   0.00000     0.00000

 24 25  0     1  0            999 V2000
   -1.0060   -0.0891    8.0554 S   0  0  1  0  0  6           0  0  0
   -2.2028   -0.2260    8.8621 O   0  0  0  0  0  2           0  0  0
   -0.0829    1.0081    8.2715 O   0  0  0  0  0  2           0  0  0
    1.3868   -0.0000   -0.0000 O   0  0  0  0  0  2           0  0  0
   -0.6681    0.0015   -3.5463 O   0  0  0  0  0  2           0  0  0
   -0.6647    0.0000    1.1811 N   0  0  0  0  0  3           0  0  0
   -2.7324   -0.0023   -0.0030 N   0  0  0  0  0  3           0  0  0
   -0.1437   -1.5598    8.0730 N   0  0  0  0  0  3           0  0  0
   -2.7434   -0.0034    2.3493 N   0  0  0  0  0  3           0  0  0
   -1.5076   -0.0363    6.3657 C   0  0  0  0  0  4           0  0  0
    0.0000    0.0000    0.0000 C   0  0  0  0  0  4           0  0  0
   -2.0211   -0.0020    1.1483 C   0  0  0  0  0  4           0  0  0
   -2.0338   -0.0008   -1.1579 C   0  0  0  0  0  4           0  0  0
   -2.3082   -0.0031    3.6764 C   0  0  0  0  0  4           0  0  0
   -0.6559    0.0005   -1.2158 C   0  0  0  0  0  4           0  0  0
   -0.6959    0.5739    5.4134 C   0  0  0  0  0  4           0  0  0
   -2.7072   -0.6404    5.9979 C   0  0  0  0  0  4           0  0  0
   -1.0997    0.5904    4.0752 C   0  0  0  0  0  4           0  0  0
   -3.1026   -0.6181    4.6588 C   0  0  0  0  0  4           0  0  0
   -0.0026    0.0011   -2.5199 C   0  0  0  0  0  4           0  0  0
    2.0024    0.6449    1.1169 C   0  0  1  0  0  4           0  0  0
    2.8628   -0.3932    1.8439 C   0  0  0  0  0  4           0  0  0
    2.8782    1.7923    0.6159 C   0  0  0  0  0  4           0  0  0
    2.0409   -1.5728    2.3460 C   0  0  0  0  0  4           0  0  0
  1  2  2  0     0  0
  1  3  2  0     0  0
  1  8  1  0     0  0
  1 10  1  0     0  0
  4 11  1  0     0  0
  4 21  1  0     0  0
  5 20  2  0     0  0
  6 11  2  0     0  0
  6 12  1  0     0  0
  7 12  2  0     0  0
  7 13  1  0     0  0
  9 12  1  0     0  0
  9 14  1  0     0  0
 10 16  2  0     0  0
 10 17  1  0     0  0
 11 15  1  0     0  0
 13 15  2  0     0  0
 14 18  2  0     0  0
 14 19  1  0     0  0
 15 20  1  0     0  0
 16 18  1  0     0  0
 17 19  2  0     0  0
 21 22  1  0     0  0
 21 23  1  0     0  0
 22 24  1  0     0  0
M  END
> <Compound >
1

> <standard_type>
pIC50

> <# Confs.>
25

> <canonical_smiles>
O=S(C1=CC=C(NC2=NC=C(C([H])=O)C(O[C@H](C)CC)=N2)C=C1)(N)=O

> <standard_relation>
=

> <predicted_activity_value>
7.698970004336019

> <actual_activity_value>
7.882728704344236

> <Publication ID>
Ece_2013

> <standard_units>
nM

> hash
3333761597320278432

$$$$
0
XXILIB    08252103513D 0   0.00000     0.00000

 24 25  0     1  0            999 V2000
   -8.5985    0.0743    3.4888 S   0  0  1  0  0  6           0  0  0
   -9.3022   -0.0351    2.2260 O   0  0  0  0  0  2           0  0  0
   -8.8321    1.1959    4.3776 O   0  0  0  0  0  2           0  0  0
    1.3868    0.0000   -0.0000 O   0  0  0  0  0  2           0  0  0
   -0.6681    0.0015   -3.5463 O   0  0  0  0  0  2           0  0  0
   -0.6647    0.0000    1.1811 N   0  0  0  0  0  3           0  0  0
   -2.7324   -0.0023   -0.0030 N   0  0  0  0  0  3           0  0  0
   -8.7774   -1.3798    4.3609 N   0  0  0  0  0  3           0  0  0
   -2.7434   -0.0034    2.3493 N   0  0  0  0  0  3           0  0  0
   -6.8707    0.0239    3.1400 C   0  0  0  0  0  4           0  0  0
    0.0000    0.0000   -0.0000 C   0  0  0  0  0  4           0  0  0
   -2.0211   -0.0020    1.1483 C   0  0  0  0  0  4           0  0  0
   -2.0338   -0.0008   -1.1579 C   0  0  0  0  0  4           0  0  0
   -4.1198   -0.0055    2.5868 C   0  0  0  0  0  4           0  0  0
   -0.6559    0.0005   -1.2158 C   0  0  0  0  0  4           0  0  0
   -6.4093   -0.5839    1.9756 C   0  0  0  0  0  4           0  0  0
   -5.9842    0.6273    4.0283 C   0  0  0  0  0  4           0  0  0
   -5.0378   -0.5984    1.7051 C   0  0  0  0  0  4           0  0  0
   -4.6159    0.6070    3.7500 C   0  0  0  0  0  4           0  0  0
   -0.0026    0.0011   -2.5199 C   0  0  0  0  0  4           0  0  0
    2.0024    0.0000    1.2897 C   0  0  1  0  0  4           0  0  0
    3.3444   -0.7289    1.1705 C   0  0  0  0  0  4           0  0  0
    2.2284    1.4426    1.7396 C   0  0  0  0  0  4           0  0  0
    3.1783   -2.1684    0.7024 C   0  0  0  0  0  4           0  0  0
  1  2  2  0     0  0
  1  3  2  0     0  0
  1  8  1  0     0  0
  1 10  1  0     0  0
  4 11  1  0     0  0
  4 21  1  0     0  0
  5 20  2  0     0  0
  6 11  2  0     0  0
  6 12  1  0     0  0
  7 12  2  0     0  0
  7 13  1  0     0  0
  9 12  1  0     0  0
  9 14  1  0     0  0
 10 16  2  0     0  0
 10 17  1  0     0  0
 11 15  1  0     0  0
 13 15  2  0     0  0
 14 18  2  0     0  0
 14 19  1  0     0  0
 15 20  1  0     0  0
 16 18  1  0     0  0
 17 19  2  0     0  0
 21 22  1  0     0  0
 21 23  1  0     0  0
 22 24  1  0     0  0
M  END
> <Compound >
1

> <standard_type>
pIC50

> <# Confs.>
25

> <canonical_smiles>
O=S(C1=CC=C(NC2=NC=C(C([H])=O)C(O[C@H](C)CC)=N2)C=C1)(N)=O

> <standard_relation>
=

> <predicted_activity_value>
7.698970004336019

> <actual_activity_value>
7.882728704344236

> <Publication ID>
Ece_2013

> <standard_units>
nM

> hash
3333761597320278432

$$$$
0
XXILIB    08252103513D 0   0.00000     0.00000

 24 25  0     1  0            999 V2000
   -8.5963   -0.0792    3.5002 S   0  0  1  0  0  6           0  0  0
   -8.8445   -1.2151    4.3663 O   0  0  0  0  0  2           0  0  0
   -9.3129    0.0749    2.2491 O   0  0  0  0  0  2           0  0  0
    1.3868    0.0000   -0.0000 O   0  0  0  0  0  2           0  0  0
   -0.6681    0.0015   -3.5463 O   0  0  0  0  0  2           0  0  0
   -0.6647    0.0000    1.1811 N   0  0  0  0  0  3           0  0  0
   -2.7324   -0.0023   -0.0030 N   0  0  0  0  0  3           0  0  0
   -8.7316    1.3593    4.4054 N   0  0  0  0  0  3           0  0  0
   -2.7434   -0.0034    2.3493 N   0  0  0  0  0  3           0  0  0
   -6.8722   -0.0598    3.1306 C   0  0  0  0  0  4           0  0  0
    0.0000    0.0000   -0.0000 C   0  0  0  0  0  4           0  0  0
   -2.0211   -0.0020    1.1483 C   0  0  0  0  0  4           0  0  0
   -2.0338   -0.0008   -1.1579 C   0  0  0  0  0  4           0  0  0
   -4.1198   -0.0055    2.5868 C   0  0  0  0  0  4           0  0  0
   -0.6559    0.0005   -1.2158 C   0  0  0  0  0  4           0  0  0
   -6.4114    0.5626    1.9737 C   0  0  0  0  0  4           0  0  0
   -5.9825   -0.6462    4.0271 C   0  0  0  0  0  4           0  0  0
   -5.0396    0.5852    1.7054 C   0  0  0  0  0  4           0  0  0
   -4.6140   -0.6194    3.7501 C   0  0  0  0  0  4           0  0  0
   -0.0026    0.0011   -2.5199 C   0  0  0  0  0  4           0  0  0
    2.0024    0.0000    1.2897 C   0  0  1  0  0  4           0  0  0
    3.3444   -0.7289    1.1705 C   0  0  0  0  0  4           0  0  0
    2.2284    1.4426    1.7396 C   0  0  0  0  0  4           0  0  0
    3.1783   -2.1684    0.7024 C   0  0  0  0  0  4           0  0  0
  1  2  2  0     0  0
  1  3  2  0     0  0
  1  8  1  0     0  0
  1 10  1  0     0  0
  4 11  1  0     0  0
  4 21  1  0     0  0
  5 20  2  0     0  0
  6 11  2  0     0  0
  6 12  1  0     0  0
  7 12  2  0     0  0
  7 13  1  0     0  0
  9 12  1  0     0  0
  9 14  1  0     0  0
 10 16  2  0     0  0
 10 17  1  0     0  0
 11 15  1  0     0  0
 13 15  2  0     0  0
 14 18  2  0     0  0
 14 19  1  0     0  0
 15 20  1  0     0  0
 16 18  1  0     0  0
 17 19  2  0     0  0
 21 22  1  0     0  0
 21 23  1  0     0  0
 22 24  1  0     0  0
M  END
> <Compound >
1

> <standard_type>
pIC50

> <# Confs.>
25

> <canonical_smiles>
O=S(C1=CC=C(NC2=NC=C(C([H])=O)C(O[C@H](C)CC)=N2)C=C1)(N)=O

> <standard_relation>
=

> <predicted_activity_value>
7.698970004336019

> <actual_activity_value>
7.882728704344236

> <Publication ID>
Ece_2013

> <standard_units>
nM

> hash
3333761597320278432

$$$$
0
XXILIB    08252103513D 0   0.00000     0.00000

 24 25  0     1  0            999 V2000
   -1.0171    0.0643    8.0590 S   0  0  1  0  0  6           0  0  0
   -1.6671    1.1985    8.6861 O   0  0  0  0  0  2           0  0  0
    0.4241   -0.0883    8.1055 O   0  0  0  0  0  2           0  0  0
    1.3868   -0.0000   -0.0000 O   0  0  0  0  0  2           0  0  0
   -0.6681    0.0015   -3.5463 O   0  0  0  0  0  2           0  0  0
   -0.6647    0.0000    1.1811 N   0  0  0  0  0  3           0  0  0
   -2.7324   -0.0023   -0.0030 N   0  0  0  0  0  3           0  0  0
   -1.7519   -1.3758    8.6003 N   0  0  0  0  0  3           0  0  0
   -2.7434   -0.0034    2.3493 N   0  0  0  0  0  3           0  0  0
   -1.4987    0.0474    6.3628 C   0  0  0  0  0  4           0  0  0
    0.0000    0.0000    0.0000 C   0  0  0  0  0  4           0  0  0
   -2.0211   -0.0020    1.1483 C   0  0  0  0  0  4           0  0  0
   -2.0338   -0.0008   -1.1579 C   0  0  0  0  0  4           0  0  0
   -2.3082   -0.0031    3.6764 C   0  0  0  0  0  4           0  0  0
   -0.6559    0.0005   -1.2158 C   0  0  0  0  0  4           0  0  0
   -0.6921   -0.5725    5.4124 C   0  0  0  0  0  4           0  0  0
   -2.7082    0.6332    5.9980 C   0  0  0  0  0  4           0  0  0
   -1.0979   -0.5932    4.0749 C   0  0  0  0  0  4           0  0  0
   -3.1048    0.6082    4.6592 C   0  0  0  0  0  4           0  0  0
   -0.0026    0.0011   -2.5199 C   0  0  0  0  0  4           0  0  0
    2.0024    0.6449    1.1169 C   0  0  1  0  0  4           0  0  0
    3.3444   -0.0460    1.3781 C   0  0  0  0  0  4           0  0  0
    2.2284    2.1191    0.7852 C   0  0  0  0  0  4           0  0  0
    4.0885    0.5678    2.5564 C   0  0  0  0  0  4           0  0  0
  1  2  2  0     0  0
  1  3  2  0     0  0
  1  8  1  0     0  0
  1 10  1  0     0  0
  4 11  1  0     0  0
  4 21  1  0     0  0
  5 20  2  0     0  0
  6 11  2  0     0  0
  6 12  1  0     0  0
  7 12  2  0     0  0
  7 13  1  0     0  0
  9 12  1  0     0  0
  9 14  1  0     0  0
 10 16  2  0     0  0
 10 17  1  0     0  0
 11 15  1  0     0  0
 13 15  2  0     0  0
 14 18  2  0     0  0
 14 19  1  0     0  0
 15 20  1  0     0  0
 16 18  1  0     0  0
 17 19  2  0     0  0
 21 22  1  0     0  0
 21 23  1  0     0  0
 22 24  1  0     0  0
M  END
> <Compound >
1

> <standard_type>
pIC50

> <# Confs.>
25

> <canonical_smiles>
O=S(C1=CC=C(NC2=NC=C(C([H])=O)C(O[C@H](C)CC)=N2)C=C1)(N)=O

> <standard_relation>
=

> <predicted_activity_value>
7.698970004336019

> <actual_activity_value>
7.882728704344236

> <Publication ID>
Ece_2013

> <standard_units>
nM

> hash
3333761597320278432

$$$$
0
XXILIB    08252103513D 0   0.00000     0.00000

 24 25  0     1  0            999 V2000
   -1.0171    0.0643    8.0590 S   0  0  1  0  0  6           0  0  0
   -0.1287   -1.0614    8.2719 O   0  0  0  0  0  2           0  0  0
   -2.2198    0.2253    8.8530 O   0  0  0  0  0  2           0  0  0
    1.3868   -0.0000   -0.0000 O   0  0  0  0  0  2           0  0  0
   -0.6681    0.0015   -3.5463 O   0  0  0  0  0  2           0  0  0
   -0.6647    0.0000    1.1811 N   0  0  0  0  0  3           0  0  0
   -2.7324   -0.0023   -0.0030 N   0  0  0  0  0  3           0  0  0
   -0.1151    1.5104    8.1068 N   0  0  0  0  0  3           0  0  0
   -2.7434   -0.0034    2.3493 N   0  0  0  0  0  3           0  0  0
   -1.4987    0.0474    6.3628 C   0  0  0  0  0  4           0  0  0
    0.0000    0.0000    0.0000 C   0  0  0  0  0  4           0  0  0
   -2.0211   -0.0020    1.1483 C   0  0  0  0  0  4           0  0  0
   -2.0338   -0.0008   -1.1579 C   0  0  0  0  0  4           0  0  0
   -2.3082   -0.0031    3.6764 C   0  0  0  0  0  4           0  0  0
   -0.6559    0.0005   -1.2158 C   0  0  0  0  0  4           0  0  0
   -0.6921   -0.5725    5.4124 C   0  0  0  0  0  4           0  0  0
   -2.7082    0.6332    5.9980 C   0  0  0  0  0  4           0  0  0
   -1.0979   -0.5932    4.0749 C   0  0  0  0  0  4           0  0  0
   -3.1048    0.6082    4.6592 C   0  0  0  0  0  4           0  0  0
   -0.0026    0.0011   -2.5199 C   0  0  0  0  0  4           0  0  0
    2.0024    0.6449    1.1169 C   0  0  1  0  0  4           0  0  0
    3.3444   -0.0460    1.3781 C   0  0  0  0  0  4           0  0  0
    2.2284    2.1191    0.7852 C   0  0  0  0  0  4           0  0  0
    4.0885    0.5678    2.5564 C   0  0  0  0  0  4           0  0  0
  1  2  2  0     0  0
  1  3  2  0     0  0
  1  8  1  0     0  0
  1 10  1  0     0  0
  4 11  1  0     0  0
  4 21  1  0     0  0
  5 20  2  0     0  0
  6 11  2  0     0  0
  6 12  1  0     0  0
  7 12  2  0     0  0
  7 13  1  0     0  0
  9 12  1  0     0  0
  9 14  1  0     0  0
 10 16  2  0     0  0
 10 17  1  0     0  0
 11 15  1  0     0  0
 13 15  2  0     0  0
 14 18  2  0     0  0
 14 19  1  0     0  0
 15 20  1  0     0  0
 16 18  1  0     0  0
 17 19  2  0     0  0
 21 22  1  0     0  0
 21 23  1  0     0  0
 22 24  1  0     0  0
M  END
> <Compound >
1

> <standard_type>
pIC50

> <# Confs.>
25

> <canonical_smiles>
O=S(C1=CC=C(NC2=NC=C(C([H])=O)C(O[C@H](C)CC)=N2)C=C1)(N)=O

> <standard_relation>
=

> <predicted_activity_value>
7.698970004336019

> <actual_activity_value>
7.882728704344236

> <Publication ID>
Ece_2013

> <standard_units>
nM

> hash
3333761597320278432

$$$$
0
XXILIB    08252103513D 0   0.00000     0.00000

 24 25  0     1  0            999 V2000
   -1.0171    0.0643    8.0590 S   0  0  1  0  0  6           0  0  0
   -0.1287   -1.0614    8.2719 O   0  0  0  0  0  2           0  0  0
   -2.2198    0.2253    8.8530 O   0  0  0  0  0  2           0  0  0
    1.3868    0.0000   -0.0000 O   0  0  0  0  0  2           0  0  0
   -0.6681    0.0015   -3.5463 O   0  0  0  0  0  2           0  0  0
   -0.6647    0.0000    1.1811 N   0  0  0  0  0  3           0  0  0
   -2.7324   -0.0023   -0.0030 N   0  0  0  0  0  3           0  0  0
   -0.1151    1.5104    8.1068 N   0  0  0  0  0  3           0  0  0
   -2.7434   -0.0034    2.3493 N   0  0  0  0  0  3           0  0  0
   -1.4987    0.0474    6.3628 C   0  0  0  0  0  4           0  0  0
    0.0000    0.0000    0.0000 C   0  0  0  0  0  4           0  0  0
   -2.0211   -0.0020    1.1483 C   0  0  0  0  0  4           0  0  0
   -2.0338   -0.0008   -1.1579 C   0  0  0  0  0  4           0  0  0
   -2.3082   -0.0031    3.6764 C   0  0  0  0  0  4           0  0  0
   -0.6559    0.0005   -1.2158 C   0  0  0  0  0  4           0  0  0
   -0.6921   -0.5725    5.4124 C   0  0  0  0  0  4           0  0  0
   -2.7082    0.6332    5.9980 C   0  0  0  0  0  4           0  0  0
   -1.0979   -0.5932    4.0749 C   0  0  0  0  0  4           0  0  0
   -3.1048    0.6082    4.6592 C   0  0  0  0  0  4           0  0  0
   -0.0026    0.0011   -2.5199 C   0  0  0  0  0  4           0  0  0
    2.0024   -0.6449    1.1169 C   0  0  1  0  0  4           0  0  0
    3.3444   -1.2165    0.6492 C   0  0  0  0  0  4           0  0  0
    2.2284    0.3795    2.2278 C   0  0  0  0  0  4           0  0  0
    4.2801   -0.1350    0.1260 C   0  0  0  0  0  4           0  0  0
  1  2  2  0     0  0
  1  3  2  0     0  0
  1  8  1  0     0  0
  1 10  1  0     0  0
  4 11  1  0     0  0
  4 21  1  0     0  0
  5 20  2  0     0  0
  6 11  2  0     0  0
  6 12  1  0     0  0
  7 12  2  0     0  0
  7 13  1  0     0  0
  9 12  1  0     0  0
  9 14  1  0     0  0
 10 16  2  0     0  0
 10 17  1  0     0  0
 11 15  1  0     0  0
 13 15  2  0     0  0
 14 18  2  0     0  0
 14 19  1  0     0  0
 15 20  1  0     0  0
 16 18  1  0     0  0
 17 19  2  0     0  0
 21 22  1  0     0  0
 21 23  1  0     0  0
 22 24  1  0     0  0
M  END
> <Compound >
1

> <standard_type>
pIC50

> <# Confs.>
25

> <canonical_smiles>
O=S(C1=CC=C(NC2=NC=C(C([H])=O)C(O[C@H](C)CC)=N2)C=C1)(N)=O

> <standard_relation>
=

> <predicted_activity_value>
7.698970004336019

> <actual_activity_value>
7.882728704344236

> <Publication ID>
Ece_2013

> <standard_units>
nM

> hash
3333761597320278432

$$$$
0
XXILIB    08252103513D 0   0.00000     0.00000

 24 25  0     1  0            999 V2000
   -1.0311   -0.0139    8.0636 S   0  0  1  0  0  6           0  0  0
    0.2932   -0.6000    8.1334 O   0  0  0  0  0  2           0  0  0
   -2.1331   -0.5696    8.8247 O   0  0  0  0  0  2           0  0  0
    1.3868    0.0000   -0.0000 O   0  0  0  0  0  2           0  0  0
   -0.6681    0.0015   -3.5463 O   0  0  0  0  0  2           0  0  0
   -0.6647    0.0000    1.1811 N   0  0  0  0  0  3           0  0  0
   -2.7324   -0.0023   -0.0030 N   0  0  0  0  0  3           0  0  0
   -0.9233    1.6595    8.3718 N   0  0  0  0  0  3           0  0  0
   -2.7434   -0.0034    2.3493 N   0  0  0  0  0  3           0  0  0
   -1.5138    0.0068    6.3677 C   0  0  0  0  0  4           0  0  0
    0.0000    0.0000    0.0000 C   0  0  0  0  0  4           0  0  0
   -2.0211   -0.0020    1.1483 C   0  0  0  0  0  4           0  0  0
   -2.0338   -0.0008   -1.1579 C   0  0  0  0  0  4           0  0  0
   -2.3082   -0.0031    3.6764 C   0  0  0  0  0  4           0  0  0
   -0.6559    0.0005   -1.2158 C   0  0  0  0  0  4           0  0  0
   -0.5480    0.0012    5.3651 C   0  0  0  0  0  4           0  0  0
   -2.8698   -0.0037    6.0511 C   0  0  0  0  0  4           0  0  0
   -0.9481   -0.0012    4.0256 C   0  0  0  0  0  4           0  0  0
   -3.2598   -0.0052    4.7102 C   0  0  0  0  0  4           0  0  0
   -0.0026    0.0011   -2.5199 C   0  0  0  0  0  4           0  0  0
    2.0024    0.0000    1.2897 C   0  0  1  0  0  4           0  0  0
    3.3444   -0.7289    1.1705 C   0  0  0  0  0  4           0  0  0
    2.2284    1.4426    1.7396 C   0  0  0  0  0  4           0  0  0
    4.0885   -0.7865    2.4978 C   0  0  0  0  0  4           0  0  0
  1  2  2  0     0  0
  1  3  2  0     0  0
  1  8  1  0     0  0
  1 10  1  0     0  0
  4 11  1  0     0  0
  4 21  1  0     0  0
  5 20  2  0     0  0
  6 11  2  0     0  0
  6 12  1  0     0  0
  7 12  2  0     0  0
  7 13  1  0     0  0
  9 12  1  0     0  0
  9 14  1  0     0  0
 10 16  2  0     0  0
 10 17  1  0     0  0
 11 15  1  0     0  0
 13 15  2  0     0  0
 14 18  2  0     0  0
 14 19  1  0     0  0
 15 20  1  0     0  0
 16 18  1  0     0  0
 17 19  2  0     0  0
 21 22  1  0     0  0
 21 23  1  0     0  0
 22 24  1  0     0  0
M  END
> <Compound >
1

> <standard_type>
pIC50

> <# Confs.>
25

> <canonical_smiles>
O=S(C1=CC=C(NC2=NC=C(C([H])=O)C(O[C@H](C)CC)=N2)C=C1)(N)=O

> <standard_relation>
=

> <predicted_activity_value>
7.698970004336019

> <actual_activity_value>
7.882728704344236

> <Publication ID>
Ece_2013

> <standard_units>
nM

> hash
3333761597320278432

$$$$
0
XXILIB    08252103513D 0   0.00000     0.00000

 24 25  0     1  0            999 V2000
   -1.5394   -2.2194    7.7553 S   0  0  1  0  0  6           0  0  0
   -2.3163   -1.4544    8.7109 O   0  0  0  0  0  2           0  0  0
   -0.1010   -2.3421    7.8920 O   0  0  0  0  0  2           0  0  0
    1.3868   -0.0000   -0.0000 O   0  0  0  0  0  2           0  0  0
   -0.6681    0.0015   -3.5463 O   0  0  0  0  0  2           0  0  0
   -0.6647    0.0000    1.1811 N   0  0  0  0  0  3           0  0  0
   -2.7324   -0.0023   -0.0030 N   0  0  0  0  0  3           0  0  0
   -2.2221   -3.7729    7.5896 N   0  0  0  0  0  3           0  0  0
   -2.7434   -0.0034    2.3493 N   0  0  0  0  0  3           0  0  0
   -1.8662   -1.5574    6.1540 C   0  0  0  0  0  4           0  0  0
    0.0000    0.0000    0.0000 C   0  0  0  0  0  4           0  0  0
   -2.0211   -0.0020    1.1483 C   0  0  0  0  0  4           0  0  0
   -2.0338   -0.0008   -1.1579 C   0  0  0  0  0  4           0  0  0
   -2.4288   -0.5318    3.6033 C   0  0  0  0  0  4           0  0  0
   -0.6559    0.0005   -1.2158 C   0  0  0  0  0  4           0  0  0
   -0.9390   -1.7175    5.1279 C   0  0  0  0  0  4           0  0  0
   -3.0748   -0.9040    5.9268 C   0  0  0  0  0  4           0  0  0
   -1.2222   -1.2028    3.8594 C   0  0  0  0  0  4           0  0  0
   -3.3483   -0.3925    4.6565 C   0  0  0  0  0  4           0  0  0
   -0.0026    0.0011   -2.5199 C   0  0  0  0  0  4           0  0  0
    2.0024    0.6449    1.1169 C   0  0  1  0  0  4           0  0  0
    3.3444   -0.0460    1.3781 C   0  0  0  0  0  4           0  0  0
    2.2284    2.1191    0.7852 C   0  0  0  0  0  4           0  0  0
    3.1783   -1.5267    1.6925 C   0  0  0  0  0  4           0  0  0
  1  2  2  0     0  0
  1  3  2  0     0  0
  1  8  1  0     0  0
  1 10  1  0     0  0
  4 11  1  0     0  0
  4 21  1  0     0  0
  5 20  2  0     0  0
  6 11  2  0     0  0
  6 12  1  0     0  0
  7 12  2  0     0  0
  7 13  1  0     0  0
  9 12  1  0     0  0
  9 14  1  0     0  0
 10 16  2  0     0  0
 10 17  1  0     0  0
 11 15  1  0     0  0
 13 15  2  0     0  0
 14 18  2  0     0  0
 14 19  1  0     0  0
 15 20  1  0     0  0
 16 18  1  0     0  0
 17 19  2  0     0  0
 21 22  1  0     0  0
 21 23  1  0     0  0
 22 24  1  0     0  0
M  END
> <Compound >
1

> <standard_type>
pIC50

> <# Confs.>
25

> <canonical_smiles>
O=S(C1=CC=C(NC2=NC=C(C([H])=O)C(O[C@H](C)CC)=N2)C=C1)(N)=O

> <standard_relation>
=

> <predicted_activity_value>
7.698970004336019

> <actual_activity_value>
7.882728704344236

> <Publication ID>
Ece_2013

> <standard_units>
nM

> hash
3333761597320278432

$$$$
0
XXILIB    08252103513D 0   0.00000     0.00000

 24 25  0     1  0            999 V2000
   -1.0311   -0.0139    8.0636 S   0  0  1  0  0  6           0  0  0
   -2.1163    0.5618    8.8336 O   0  0  0  0  0  2           0  0  0
    0.3101    0.5314    8.1427 O   0  0  0  0  0  2           0  0  0
    1.3868    0.0000   -0.0000 O   0  0  0  0  0  2           0  0  0
   -0.6681    0.0015   -3.5463 O   0  0  0  0  0  2           0  0  0
   -0.6647    0.0000    1.1811 N   0  0  0  0  0  3           0  0  0
   -2.7324   -0.0023   -0.0030 N   0  0  0  0  0  3           0  0  0
   -0.9712   -1.6946    8.3444 N   0  0  0  0  0  3           0  0  0
   -2.7434   -0.0034    2.3493 N   0  0  0  0  0  3           0  0  0
   -1.5138    0.0068    6.3677 C   0  0  0  0  0  4           0  0  0
    0.0000    0.0000    0.0000 C   0  0  0  0  0  4           0  0  0
   -2.0211   -0.0020    1.1483 C   0  0  0  0  0  4           0  0  0
   -2.0338   -0.0008   -1.1579 C   0  0  0  0  0  4           0  0  0
   -2.3082   -0.0031    3.6764 C   0  0  0  0  0  4           0  0  0
   -0.6559    0.0005   -1.2158 C   0  0  0  0  0  4           0  0  0
   -0.5480    0.0012    5.3651 C   0  0  0  0  0  4           0  0  0
   -2.8698   -0.0037    6.0511 C   0  0  0  0  0  4           0  0  0
   -0.9481   -0.0012    4.0256 C   0  0  0  0  0  4           0  0  0
   -3.2598   -0.0052    4.7102 C   0  0  0  0  0  4           0  0  0
   -0.0026    0.0011   -2.5199 C   0  0  0  0  0  4           0  0  0
    2.0024    0.0000    1.2897 C   0  0  1  0  0  4           0  0  0
    3.3444   -0.7289    1.1705 C   0  0  0  0  0  4           0  0  0
    2.2284    1.4426    1.7396 C   0  0  0  0  0  4           0  0  0
    4.0885   -0.7865    2.4978 C   0  0  0  0  0  4           0  0  0
  1  2  2  0     0  0
  1  3  2  0     0  0
  1  8  1  0     0  0
  1 10  1  0     0  0
  4 11  1  0     0  0
  4 21  1  0     0  0
  5 20  2  0     0  0
  6 11  2  0     0  0
  6 12  1  0     0  0
  7 12  2  0     0  0
  7 13  1  0     0  0
  9 12  1  0     0  0
  9 14  1  0     0  0
 10 16  2  0     0  0
 10 17  1  0     0  0
 11 15  1  0     0  0
 13 15  2  0     0  0
 14 18  2  0     0  0
 14 19  1  0     0  0
 15 20  1  0     0  0
 16 18  1  0     0  0
 17 19  2  0     0  0
 21 22  1  0     0  0
 21 23  1  0     0  0
 22 24  1  0     0  0
M  END
> <Compound >
1

> <standard_type>
pIC50

> <# Confs.>
25

> <canonical_smiles>
O=S(C1=CC=C(NC2=NC=C(C([H])=O)C(O[C@H](C)CC)=N2)C=C1)(N)=O

> <standard_relation>
=

> <predicted_activity_value>
7.698970004336019

> <actual_activity_value>
7.882728704344236

> <Publication ID>
Ece_2013

> <standard_units>
nM

> hash
3333761597320278432

$$$$
0
XXILIB    08252103513D 0   0.00000     0.00000

 24 25  0     1  0            999 V2000
   -1.0171    0.0643    8.0590 S   0  0  1  0  0  6           0  0  0
   -1.6671    1.1985    8.6861 O   0  0  0  0  0  2           0  0  0
    0.4241   -0.0883    8.1055 O   0  0  0  0  0  2           0  0  0
    1.3868    0.0000   -0.0000 O   0  0  0  0  0  2           0  0  0
   -0.6681    0.0015   -3.5463 O   0  0  0  0  0  2           0  0  0
   -0.6647    0.0000    1.1811 N   0  0  0  0  0  3           0  0  0
   -2.7324   -0.0023   -0.0030 N   0  0  0  0  0  3           0  0  0
   -1.7519   -1.3758    8.6003 N   0  0  0  0  0  3           0  0  0
   -2.7434   -0.0034    2.3493 N   0  0  0  0  0  3           0  0  0
   -1.4987    0.0474    6.3628 C   0  0  0  0  0  4           0  0  0
    0.0000    0.0000    0.0000 C   0  0  0  0  0  4           0  0  0
   -2.0211   -0.0020    1.1483 C   0  0  0  0  0  4           0  0  0
   -2.0338   -0.0008   -1.1579 C   0  0  0  0  0  4           0  0  0
   -2.3082   -0.0031    3.6764 C   0  0  0  0  0  4           0  0  0
   -0.6559    0.0005   -1.2158 C   0  0  0  0  0  4           0  0  0
   -0.6921   -0.5725    5.4124 C   0  0  0  0  0  4           0  0  0
   -2.7082    0.6332    5.9980 C   0  0  0  0  0  4           0  0  0
   -1.0979   -0.5932    4.0749 C   0  0  0  0  0  4           0  0  0
   -3.1048    0.6082    4.6592 C   0  0  0  0  0  4           0  0  0
   -0.0026    0.0011   -2.5199 C   0  0  0  0  0  4           0  0  0
    2.0024   -0.6449    1.1169 C   0  0  1  0  0  4           0  0  0
    3.3444   -1.2165    0.6492 C   0  0  0  0  0  4           0  0  0
    2.2284    0.3795    2.2278 C   0  0  0  0  0  4           0  0  0
    4.2801   -0.1350    0.1260 C   0  0  0  0  0  4           0  0  0
  1  2  2  0     0  0
  1  3  2  0     0  0
  1  8  1  0     0  0
  1 10  1  0     0  0
  4 11  1  0     0  0
  4 21  1  0     0  0
  5 20  2  0     0  0
  6 11  2  0     0  0
  6 12  1  0     0  0
  7 12  2  0     0  0
  7 13  1  0     0  0
  9 12  1  0     0  0
  9 14  1  0     0  0
 10 16  2  0     0  0
 10 17  1  0     0  0
 11 15  1  0     0  0
 13 15  2  0     0  0
 14 18  2  0     0  0
 14 19  1  0     0  0
 15 20  1  0     0  0
 16 18  1  0     0  0
 17 19  2  0     0  0
 21 22  1  0     0  0
 21 23  1  0     0  0
 22 24  1  0     0  0
M  END
> <Compound >
1

> <standard_type>
pIC50

> <# Confs.>
25

> <canonical_smiles>
O=S(C1=CC=C(NC2=NC=C(C([H])=O)C(O[C@H](C)CC)=N2)C=C1)(N)=O

> <standard_relation>
=

> <predicted_activity_value>
7.698970004336019

> <actual_activity_value>
7.882728704344236

> <Publication ID>
Ece_2013

> <standard_units>
nM

> hash
3333761597320278432

$$$$
0
XXILIB    08252103513D 0   0.00000     0.00000

 24 25  0     1  0            999 V2000
   -1.5394   -2.2194    7.7553 S   0  0  1  0  0  6           0  0  0
   -0.6006   -3.3123    7.5927 O   0  0  0  0  0  2           0  0  0
   -2.8158   -2.4247    8.4120 O   0  0  0  0  0  2           0  0  0
    1.3868   -0.0000   -0.0000 O   0  0  0  0  0  2           0  0  0
   -0.6681    0.0015   -3.5463 O   0  0  0  0  0  2           0  0  0
   -0.6647    0.0000    1.1811 N   0  0  0  0  0  3           0  0  0
   -2.7324   -0.0023   -0.0030 N   0  0  0  0  0  3           0  0  0
   -0.7431   -0.8959    8.4772 N   0  0  0  0  0  3           0  0  0
   -2.7434   -0.0034    2.3493 N   0  0  0  0  0  3           0  0  0
   -1.8662   -1.5574    6.1540 C   0  0  0  0  0  4           0  0  0
    0.0000    0.0000    0.0000 C   0  0  0  0  0  4           0  0  0
   -2.0211   -0.0020    1.1483 C   0  0  0  0  0  4           0  0  0
   -2.0338   -0.0008   -1.1579 C   0  0  0  0  0  4           0  0  0
   -2.4288   -0.5318    3.6033 C   0  0  0  0  0  4           0  0  0
   -0.6559    0.0005   -1.2158 C   0  0  0  0  0  4           0  0  0
   -0.9390   -1.7175    5.1279 C   0  0  0  0  0  4           0  0  0
   -3.0748   -0.9040    5.9268 C   0  0  0  0  0  4           0  0  0
   -1.2222   -1.2028    3.8594 C   0  0  0  0  0  4           0  0  0
   -3.3483   -0.3925    4.6565 C   0  0  0  0  0  4           0  0  0
   -0.0026    0.0011   -2.5199 C   0  0  0  0  0  4           0  0  0
    2.0024    0.6449    1.1169 C   0  0  1  0  0  4           0  0  0
    3.3444   -0.0460    1.3781 C   0  0  0  0  0  4           0  0  0
    2.2284    2.1191    0.7852 C   0  0  0  0  0  4           0  0  0
    3.1783   -1.5267    1.6925 C   0  0  0  0  0  4           0  0  0
  1  2  2  0     0  0
  1  3  2  0     0  0
  1  8  1  0     0  0
  1 10  1  0     0  0
  4 11  1  0     0  0
  4 21  1  0     0  0
  5 20  2  0     0  0
  6 11  2  0     0  0
  6 12  1  0     0  0
  7 12  2  0     0  0
  7 13  1  0     0  0
  9 12  1  0     0  0
  9 14  1  0     0  0
 10 16  2  0     0  0
 10 17  1  0     0  0
 11 15  1  0     0  0
 13 15  2  0     0  0
 14 18  2  0     0  0
 14 19  1  0     0  0
 15 20  1  0     0  0
 16 18  1  0     0  0
 17 19  2  0     0  0
 21 22  1  0     0  0
 21 23  1  0     0  0
 22 24  1  0     0  0
M  END
> <Compound >
1

> <standard_type>
pIC50

> <# Confs.>
25

> <canonical_smiles>
O=S(C1=CC=C(NC2=NC=C(C([H])=O)C(O[C@H](C)CC)=N2)C=C1)(N)=O

> <standard_relation>
=

> <predicted_activity_value>
7.698970004336019

> <actual_activity_value>
7.882728704344236

> <Publication ID>
Ece_2013

> <standard_units>
nM

> hash
3333761597320278432

$$$$
0
XXILIB    08252103513D 0   0.00000     0.00000

 24 25  0     1  0            999 V2000
   -1.5360    2.1933    7.7625 S   0  0  1  0  0  6           0  0  0
   -0.0952    2.2713    7.9032 O   0  0  0  0  0  2           0  0  0
   -2.3371    1.4359    8.7044 O   0  0  0  0  0  2           0  0  0
    1.3868    0.0000   -0.0000 O   0  0  0  0  0  2           0  0  0
   -0.6681    0.0015   -3.5463 O   0  0  0  0  0  2           0  0  0
   -0.6647   -0.0000    1.1811 N   0  0  0  0  0  3           0  0  0
   -2.7324   -0.0023   -0.0030 N   0  0  0  0  0  3           0  0  0
   -2.1741    3.7681    7.6219 N   0  0  0  0  0  3           0  0  0
   -2.7434   -0.0034    2.3493 N   0  0  0  0  0  3           0  0  0
   -1.8790    1.5675    6.1499 C   0  0  0  0  0  4           0  0  0
    0.0000    0.0000    0.0000 C   0  0  0  0  0  4           0  0  0
   -2.0211   -0.0020    1.1483 C   0  0  0  0  0  4           0  0  0
   -2.0338   -0.0008   -1.1579 C   0  0  0  0  0  4           0  0  0
   -2.4304    0.5252    3.6036 C   0  0  0  0  0  4           0  0  0
   -0.6559    0.0005   -1.2158 C   0  0  0  0  0  4           0  0  0
   -0.9460    1.7183    5.1277 C   0  0  0  0  0  4           0  0  0
   -3.0782    0.8958    5.9268 C   0  0  0  0  0  4           0  0  0
   -1.2257    1.1997    3.8600 C   0  0  0  0  0  4           0  0  0
   -3.3491    0.3819    4.6569 C   0  0  0  0  0  4           0  0  0
   -0.0026    0.0011   -2.5199 C   0  0  0  0  0  4           0  0  0
    2.0024   -0.6449    1.1169 C   0  0  1  0  0  4           0  0  0
    2.8628   -1.7935    0.5815 C   0  0  0  0  0  4           0  0  0
    2.8782    0.3628    1.8601 C   0  0  0  0  0  4           0  0  0
    2.0409   -2.8180   -0.1891 C   0  0  0  0  0  4           0  0  0
  1  2  2  0     0  0
  1  3  2  0     0  0
  1  8  1  0     0  0
  1 10  1  0     0  0
  4 11  1  0     0  0
  4 21  1  0     0  0
  5 20  2  0     0  0
  6 11  2  0     0  0
  6 12  1  0     0  0
  7 12  2  0     0  0
  7 13  1  0     0  0
  9 12  1  0     0  0
  9 14  1  0     0  0
 10 16  2  0     0  0
 10 17  1  0     0  0
 11 15  1  0     0  0
 13 15  2  0     0  0
 14 18  2  0     0  0
 14 19  1  0     0  0
 15 20  1  0     0  0
 16 18  1  0     0  0
 17 19  2  0     0  0
 21 22  1  0     0  0
 21 23  1  0     0  0
 22 24  1  0     0  0
M  END
> <Compound >
1

> <standard_type>
pIC50

> <# Confs.>
25

> <canonical_smiles>
O=S(C1=CC=C(NC2=NC=C(C([H])=O)C(O[C@H](C)CC)=N2)C=C1)(N)=O

> <standard_relation>
=

> <predicted_activity_value>
7.698970004336019

> <actual_activity_value>
7.882728704344236

> <Publication ID>
Ece_2013

> <standard_units>
nM

> hash
3333761597320278432

$$$$
0
XXILIB    08252103513D 0   0.00000     0.00000

 24 25  0     1  0            999 V2000
   -1.0060   -0.0891    8.0554 S   0  0  1  0  0  6           0  0  0
    0.4393    0.0217    8.0854 O   0  0  0  0  0  2           0  0  0
   -1.6805   -1.2124    8.6764 O   0  0  0  0  0  2           0  0  0
    1.3868    0.0000    0.0000 O   0  0  0  0  0  2           0  0  0
   -0.6681    0.0015   -3.5463 O   0  0  0  0  0  2           0  0  0
   -0.6647    0.0000    1.1811 N   0  0  0  0  0  3           0  0  0
   -2.7324   -0.0023   -0.0030 N   0  0  0  0  0  3           0  0  0
   -1.6940    1.3633    8.6246 N   0  0  0  0  0  3           0  0  0
   -2.7434   -0.0034    2.3493 N   0  0  0  0  0  3           0  0  0
   -1.5076   -0.0363    6.3657 C   0  0  0  0  0  4           0  0  0
    0.0000    0.0000    0.0000 C   0  0  0  0  0  4           0  0  0
   -2.0211   -0.0020    1.1483 C   0  0  0  0  0  4           0  0  0
   -2.0338   -0.0008   -1.1579 C   0  0  0  0  0  4           0  0  0
   -2.3082   -0.0031    3.6764 C   0  0  0  0  0  4           0  0  0
   -0.6559    0.0005   -1.2158 C   0  0  0  0  0  4           0  0  0
   -0.6959    0.5739    5.4134 C   0  0  0  0  0  4           0  0  0
   -2.7072   -0.6404    5.9979 C   0  0  0  0  0  4           0  0  0
   -1.0997    0.5904    4.0752 C   0  0  0  0  0  4           0  0  0
   -3.1026   -0.6181    4.6588 C   0  0  0  0  0  4           0  0  0
   -0.0026    0.0011   -2.5199 C   0  0  0  0  0  4           0  0  0
    2.0024   -0.6449    1.1169 C   0  0  1  0  0  4           0  0  0
    2.2050   -2.1196    0.7557 C   0  0  0  0  0  4           0  0  0
    3.3513    0.0152    1.3986 C   0  0  0  0  0  4           0  0  0
    1.0090   -2.9777    1.1457 C   0  0  0  0  0  4           0  0  0
  1  2  2  0     0  0
  1  3  2  0     0  0
  1  8  1  0     0  0
  1 10  1  0     0  0
  4 11  1  0     0  0
  4 21  1  0     0  0
  5 20  2  0     0  0
  6 11  2  0     0  0
  6 12  1  0     0  0
  7 12  2  0     0  0
  7 13  1  0     0  0
  9 12  1  0     0  0
  9 14  1  0     0  0
 10 16  2  0     0  0
 10 17  1  0     0  0
 11 15  1  0     0  0
 13 15  2  0     0  0
 14 18  2  0     0  0
 14 19  1  0     0  0
 15 20  1  0     0  0
 16 18  1  0     0  0
 17 19  2  0     0  0
 21 22  1  0     0  0
 21 23  1  0     0  0
 22 24  1  0     0  0
M  END
> <Compound >
1

> <standard_type>
pIC50

> <# Confs.>
25

> <canonical_smiles>
O=S(C1=CC=C(NC2=NC=C(C([H])=O)C(O[C@H](C)CC)=N2)C=C1)(N)=O

> <standard_relation>
=

> <predicted_activity_value>
7.698970004336019

> <actual_activity_value>
7.882728704344236

> <Publication ID>
Ece_2013

> <standard_units>
nM

> hash
3333761597320278432

$$$$
0
XXILIB    08252103513D 0   0.00000     0.00000

 24 25  0     1  0            999 V2000
   -8.5963   -0.0792    3.5002 S   0  0  1  0  0  6           0  0  0
   -9.2019    1.0472    2.8170 O   0  0  0  0  0  2           0  0  0
   -8.7338   -0.2427    4.9343 O   0  0  0  0  0  2           0  0  0
    1.3868   -0.0000   -0.0000 O   0  0  0  0  0  2           0  0  0
   -0.6681    0.0015   -3.5463 O   0  0  0  0  0  2           0  0  0
   -0.6647    0.0000    1.1811 N   0  0  0  0  0  3           0  0  0
   -2.7324   -0.0023   -0.0030 N   0  0  0  0  0  3           0  0  0
   -9.0598   -1.5243    2.7233 N   0  0  0  0  0  3           0  0  0
   -2.7434   -0.0034    2.3493 N   0  0  0  0  0  3           0  0  0
   -6.8722   -0.0598    3.1306 C   0  0  0  0  0  4           0  0  0
    0.0000    0.0000   -0.0000 C   0  0  0  0  0  4           0  0  0
   -2.0211   -0.0020    1.1483 C   0  0  0  0  0  4           0  0  0
   -2.0338   -0.0008   -1.1579 C   0  0  0  0  0  4           0  0  0
   -4.1198   -0.0055    2.5868 C   0  0  0  0  0  4           0  0  0
   -0.6559    0.0005   -1.2158 C   0  0  0  0  0  4           0  0  0
   -6.4114    0.5626    1.9737 C   0  0  0  0  0  4           0  0  0
   -5.9825   -0.6462    4.0271 C   0  0  0  0  0  4           0  0  0
   -5.0396    0.5852    1.7054 C   0  0  0  0  0  4           0  0  0
   -4.6140   -0.6194    3.7501 C   0  0  0  0  0  4           0  0  0
   -0.0026    0.0011   -2.5199 C   0  0  0  0  0  4           0  0  0
    2.0024    0.6449    1.1169 C   0  0  1  0  0  4           0  0  0
    2.8628   -0.3932    1.8439 C   0  0  0  0  0  4           0  0  0
    2.8782    1.7923    0.6159 C   0  0  0  0  0  4           0  0  0
    2.0409   -1.5728    2.3460 C   0  0  0  0  0  4           0  0  0
  1  2  2  0     0  0
  1  3  2  0     0  0
  1  8  1  0     0  0
  1 10  1  0     0  0
  4 11  1  0     0  0
  4 21  1  0     0  0
  5 20  2  0     0  0
  6 11  2  0     0  0
  6 12  1  0     0  0
  7 12  2  0     0  0
  7 13  1  0     0  0
  9 12  1  0     0  0
  9 14  1  0     0  0
 10 16  2  0     0  0
 10 17  1  0     0  0
 11 15  1  0     0  0
 13 15  2  0     0  0
 14 18  2  0     0  0
 14 19  1  0     0  0
 15 20  1  0     0  0
 16 18  1  0     0  0
 17 19  2  0     0  0
 21 22  1  0     0  0
 21 23  1  0     0  0
 22 24  1  0     0  0
M  END
> <Compound >
1

> <standard_type>
pIC50

> <# Confs.>
25

> <canonical_smiles>
O=S(C1=CC=C(NC2=NC=C(C([H])=O)C(O[C@H](C)CC)=N2)C=C1)(N)=O

> <standard_relation>
=

> <predicted_activity_value>
7.698970004336019

> <actual_activity_value>
7.882728704344236

> <Publication ID>
Ece_2013

> <standard_units>
nM

> hash
3333761597320278432

$$$$
0
XXILIB    08252103513D 0   0.00000     0.00000

 24 25  0     1  0            999 V2000
   -8.5985    0.0743    3.4888 S   0  0  1  0  0  6           0  0  0
   -8.7503    0.2086    4.9244 O   0  0  0  0  0  2           0  0  0
   -9.2208   -1.0223    2.7729 O   0  0  0  0  0  2           0  0  0
    1.3868   -0.0000   -0.0000 O   0  0  0  0  0  2           0  0  0
   -0.6681    0.0015   -3.5463 O   0  0  0  0  0  2           0  0  0
   -0.6647    0.0000    1.1811 N   0  0  0  0  0  3           0  0  0
   -2.7324   -0.0023   -0.0030 N   0  0  0  0  0  3           0  0  0
   -9.0196    1.5459    2.7379 N   0  0  0  0  0  3           0  0  0
   -2.7434   -0.0034    2.3493 N   0  0  0  0  0  3           0  0  0
   -6.8707    0.0239    3.1400 C   0  0  0  0  0  4           0  0  0
    0.0000    0.0000   -0.0000 C   0  0  0  0  0  4           0  0  0
   -2.0211   -0.0020    1.1483 C   0  0  0  0  0  4           0  0  0
   -2.0338   -0.0008   -1.1579 C   0  0  0  0  0  4           0  0  0
   -4.1198   -0.0055    2.5868 C   0  0  0  0  0  4           0  0  0
   -0.6559    0.0005   -1.2158 C   0  0  0  0  0  4           0  0  0
   -6.4093   -0.5839    1.9756 C   0  0  0  0  0  4           0  0  0
   -5.9842    0.6273    4.0283 C   0  0  0  0  0  4           0  0  0
   -5.0378   -0.5984    1.7051 C   0  0  0  0  0  4           0  0  0
   -4.6159    0.6070    3.7500 C   0  0  0  0  0  4           0  0  0
   -0.0026    0.0011   -2.5199 C   0  0  0  0  0  4           0  0  0
    2.0024    0.6449    1.1169 C   0  0  1  0  0  4           0  0  0
    2.8628   -0.3932    1.8439 C   0  0  0  0  0  4           0  0  0
    2.8782    1.7923    0.6159 C   0  0  0  0  0  4           0  0  0
    2.0409   -1.5728    2.3460 C   0  0  0  0  0  4           0  0  0
  1  2  2  0     0  0
  1  3  2  0     0  0
  1  8  1  0     0  0
  1 10  1  0     0  0
  4 11  1  0     0  0
  4 21  1  0     0  0
  5 20  2  0     0  0
  6 11  2  0     0  0
  6 12  1  0     0  0
  7 12  2  0     0  0
  7 13  1  0     0  0
  9 12  1  0     0  0
  9 14  1  0     0  0
 10 16  2  0     0  0
 10 17  1  0     0  0
 11 15  1  0     0  0
 13 15  2  0     0  0
 14 18  2  0     0  0
 14 19  1  0     0  0
 15 20  1  0     0  0
 16 18  1  0     0  0
 17 19  2  0     0  0
 21 22  1  0     0  0
 21 23  1  0     0  0
 22 24  1  0     0  0
M  END
> <Compound >
1

> <standard_type>
pIC50

> <# Confs.>
25

> <canonical_smiles>
O=S(C1=CC=C(NC2=NC=C(C([H])=O)C(O[C@H](C)CC)=N2)C=C1)(N)=O

> <standard_relation>
=

> <predicted_activity_value>
7.698970004336019

> <actual_activity_value>
7.882728704344236

> <Publication ID>
Ece_2013

> <standard_units>
nM

> hash
3333761597320278432

$$$$
0
XXILIB    08252103513D 0   0.00000     0.00000

 24 25  0     1  0            999 V2000
   -1.0060   -0.0891    8.0554 S   0  0  1  0  0  6           0  0  0
    0.4393    0.0217    8.0854 O   0  0  0  0  0  2           0  0  0
   -1.6805   -1.2124    8.6764 O   0  0  0  0  0  2           0  0  0
    1.3868   -0.0000   -0.0000 O   0  0  0  0  0  2           0  0  0
   -0.6681    0.0015   -3.5463 O   0  0  0  0  0  2           0  0  0
   -0.6647    0.0000    1.1811 N   0  0  0  0  0  3           0  0  0
   -2.7324   -0.0023   -0.0030 N   0  0  0  0  0  3           0  0  0
   -1.6940    1.3633    8.6246 N   0  0  0  0  0  3           0  0  0
   -2.7434   -0.0034    2.3493 N   0  0  0  0  0  3           0  0  0
   -1.5076   -0.0363    6.3657 C   0  0  0  0  0  4           0  0  0
    0.0000    0.0000    0.0000 C   0  0  0  0  0  4           0  0  0
   -2.0211   -0.0020    1.1483 C   0  0  0  0  0  4           0  0  0
   -2.0338   -0.0008   -1.1579 C   0  0  0  0  0  4           0  0  0
   -2.3082   -0.0031    3.6764 C   0  0  0  0  0  4           0  0  0
   -0.6559    0.0005   -1.2158 C   0  0  0  0  0  4           0  0  0
   -0.6959    0.5739    5.4134 C   0  0  0  0  0  4           0  0  0
   -2.7072   -0.6404    5.9979 C   0  0  0  0  0  4           0  0  0
   -1.0997    0.5904    4.0752 C   0  0  0  0  0  4           0  0  0
   -3.1026   -0.6181    4.6588 C   0  0  0  0  0  4           0  0  0
   -0.0026    0.0011   -2.5199 C   0  0  0  0  0  4           0  0  0
    2.0024    1.1169    0.6449 C   0  0  1  0  0  4           0  0  0
    3.3444    0.6492    1.2165 C   0  0  0  0  0  4           0  0  0
    2.2284    2.2278   -0.3795 C   0  0  0  0  0  4           0  0  0
    3.1783   -0.4759    2.2291 C   0  0  0  0  0  4           0  0  0
  1  2  2  0     0  0
  1  3  2  0     0  0
  1  8  1  0     0  0
  1 10  1  0     0  0
  4 11  1  0     0  0
  4 21  1  0     0  0
  5 20  2  0     0  0
  6 11  2  0     0  0
  6 12  1  0     0  0
  7 12  2  0     0  0
  7 13  1  0     0  0
  9 12  1  0     0  0
  9 14  1  0     0  0
 10 16  2  0     0  0
 10 17  1  0     0  0
 11 15  1  0     0  0
 13 15  2  0     0  0
 14 18  2  0     0  0
 14 19  1  0     0  0
 15 20  1  0     0  0
 16 18  1  0     0  0
 17 19  2  0     0  0
 21 22  1  0     0  0
 21 23  1  0     0  0
 22 24  1  0     0  0
M  END
> <Compound >
1

> <standard_type>
pIC50

> <# Confs.>
25

> <canonical_smiles>
O=S(C1=CC=C(NC2=NC=C(C([H])=O)C(O[C@H](C)CC)=N2)C=C1)(N)=O

> <standard_relation>
=

> <predicted_activity_value>
7.698970004336019

> <actual_activity_value>
7.882728704344236

> <Publication ID>
Ece_2013

> <standard_units>
nM

> hash
3333761597320278432

$$$$
9
XXILIB    08252103513D 0   0.00000     0.00000

 18 19  0     1  0            999 V2000
    0.0000    0.0000   -0.0000 O   0  0  0  0  0  2           0  0  0
    2.0548   -0.0000    1.1744 N   0  0  0  0  0  3           0  0  0
    4.0966    0.0301   -0.0471 N   0  0  0  0  0  3           0  0  0
    1.2923    0.0187   -2.4413 N   0  0  0  0  0  3           0  0  0
    4.1124    0.0008    2.3034 N   0  0  0  0  0  3           0  0  0
    4.1257    0.0447   -2.4087 N   0  0  0  0  0  3           0  0  0
    1.3856    0.0000    0.0000 C   0  0  0  0  0  4           0  0  0
    3.4023    0.0098    1.1137 C   0  0  0  0  0  4           0  0  0
    3.4070    0.0478   -1.2143 C   0  0  0  0  0  4           0  0  0
    2.0144    0.0045   -1.2386 C   0  0  0  0  0  4           0  0  0
   -0.5860   -0.0000    1.3018 C   0  0  0  0  0  4           0  0  0
    0.1324   -0.5451   -2.4451 C   0  0  0  0  0  4           0  0  0
   -2.1044   -0.0000    1.1524 C   0  0  1  0  0  4           0  0  0
   -2.8027   -0.0000    2.5231 C   0  0  0  0  0  4           0  0  0
   -2.5588    1.1994    0.3097 C   0  0  0  0  0  4           0  0  0
   -4.3225    0.0628    2.3847 C   0  0  0  0  0  4           0  0  0
   -4.0785    1.2560    0.1754 C   0  0  0  0  0  4           0  0  0
   -4.7637    1.2519    1.5378 C   0  0  0  0  0  4           0  0  0
  1  7  1  0     0  0
  1 11  1  0     0  0
  2  7  2  0     0  0
  2  8  1  0     0  0
  3  8  2  0     0  0
  3  9  1  0     0  0
  4 10  1  0     0  0
  4 12  2  0     0  0
  5  8  1  0     0  0
  6  9  1  0     0  0
  7 10  1  0     0  0
  9 10  2  0     0  0
 11 13  1  0     0  0
 13 14  1  0     0  0
 13 15  1  0     0  0
 14 16  1  0     0  0
 15 17  1  0     0  0
 16 18  1  0     0  0
 17 18  1  0     0  0
M  END
> <Compound >
10

> <standard_type>
pIC50

> <# Confs.>
25

> <canonical_smiles>
NC1=NC(N)=C(N=C)C(OCC2CCCCC2)=N1

> <standard_relation>
=

> <predicted_activity_value>
6.017457417697057

> <actual_activity_value>
5.657577319177793

> <Publication ID>
nan

> <standard_units>
nM

> hash
10067028176825304050

$$$$
9
XXILIB    08252103513D 0   0.00000     0.00000

 18 19  0     1  0            999 V2000
    0.0000    0.0000   -0.0000 O   0  0  0  0  0  2           0  0  0
    2.0548   -0.0000    1.1744 N   0  0  0  0  0  3           0  0  0
    4.0966    0.0301   -0.0471 N   0  0  0  0  0  3           0  0  0
    1.2923    0.0187   -2.4413 N   0  0  0  0  0  3           0  0  0
    4.1124    0.0008    2.3034 N   0  0  0  0  0  3           0  0  0
    4.1257    0.0447   -2.4087 N   0  0  0  0  0  3           0  0  0
    1.3856    0.0000    0.0000 C   0  0  0  0  0  4           0  0  0
    3.4023    0.0098    1.1137 C   0  0  0  0  0  4           0  0  0
    3.4070    0.0478   -1.2143 C   0  0  0  0  0  4           0  0  0
    2.0144    0.0045   -1.2386 C   0  0  0  0  0  4           0  0  0
   -0.5860   -0.0000    1.3018 C   0  0  0  0  0  4           0  0  0
    0.1407    0.5993   -2.4366 C   0  0  0  0  0  4           0  0  0
   -2.1044   -0.0000    1.1524 C   0  0  1  0  0  4           0  0  0
   -2.5924   -1.2405    0.3848 C   0  0  0  0  0  4           0  0  0
   -2.7771    0.0881    2.5290 C   0  0  0  0  0  4           0  0  0
   -4.1158   -1.2815    0.2840 C   0  0  0  0  0  4           0  0  0
   -4.2993    0.0467    2.4210 C   0  0  0  0  0  4           0  0  0
   -4.7753   -1.1836    1.6557 C   0  0  0  0  0  4           0  0  0
  1  7  1  0     0  0
  1 11  1  0     0  0
  2  7  2  0     0  0
  2  8  1  0     0  0
  3  8  2  0     0  0
  3  9  1  0     0  0
  4 10  1  0     0  0
  4 12  2  0     0  0
  5  8  1  0     0  0
  6  9  1  0     0  0
  7 10  1  0     0  0
  9 10  2  0     0  0
 11 13  1  0     0  0
 13 14  1  0     0  0
 13 15  1  0     0  0
 14 16  1  0     0  0
 15 17  1  0     0  0
 16 18  1  0     0  0
 17 18  1  0     0  0
M  END
> <Compound >
10

> <standard_type>
pIC50

> <# Confs.>
25

> <canonical_smiles>
NC1=NC(N)=C(N=C)C(OCC2CCCCC2)=N1

> <standard_relation>
=

> <predicted_activity_value>
6.017457417697057

> <actual_activity_value>
5.657577319177793

> <Publication ID>
nan

> <standard_units>
nM

> hash
10067028176825304050

$$$$
9
XXILIB    08252103513D 0   0.00000     0.00000

 18 19  0     1  0            999 V2000
    0.0000    0.0000   -0.0000 O   0  0  0  0  0  2           0  0  0
    2.0548   -0.0000    1.1744 N   0  0  0  0  0  3           0  0  0
    4.0966    0.0301   -0.0471 N   0  0  0  0  0  3           0  0  0
    1.2923    0.0187   -2.4413 N   0  0  0  0  0  3           0  0  0
    4.1124    0.0008    2.3034 N   0  0  0  0  0  3           0  0  0
    4.1257    0.0447   -2.4087 N   0  0  0  0  0  3           0  0  0
    1.3856    0.0000    0.0000 C   0  0  0  0  0  4           0  0  0
    3.4023    0.0098    1.1137 C   0  0  0  0  0  4           0  0  0
    3.4070    0.0478   -1.2143 C   0  0  0  0  0  4           0  0  0
    2.0144    0.0045   -1.2386 C   0  0  0  0  0  4           0  0  0
   -0.5860   -0.0000    1.3018 C   0  0  0  0  0  4           0  0  0
    0.1324   -0.5451   -2.4451 C   0  0  0  0  0  4           0  0  0
   -2.1044   -0.0000    1.1524 C   0  0  1  0  0  4           0  0  0
   -2.5924    1.2405    0.3848 C   0  0  0  0  0  4           0  0  0
   -2.5738   -1.2875    0.4615 C   0  0  0  0  0  4           0  0  0
   -4.1052    1.2187    0.1757 C   0  0  0  0  0  4           0  0  0
   -4.0864   -1.3027    0.2559 C   0  0  0  0  0  4           0  0  0
   -4.5630   -0.0684   -0.5023 C   0  0  0  0  0  4           0  0  0
  1  7  1  0     0  0
  1 11  1  0     0  0
  2  7  2  0     0  0
  2  8  1  0     0  0
  3  8  2  0     0  0
  3  9  1  0     0  0
  4 10  1  0     0  0
  4 12  2  0     0  0
  5  8  1  0     0  0
  6  9  1  0     0  0
  7 10  1  0     0  0
  9 10  2  0     0  0
 11 13  1  0     0  0
 13 14  1  0     0  0
 13 15  1  0     0  0
 14 16  1  0     0  0
 15 17  1  0     0  0
 16 18  1  0     0  0
 17 18  1  0     0  0
M  END
> <Compound >
10

> <standard_type>
pIC50

> <# Confs.>
25

> <canonical_smiles>
NC1=NC(N)=C(N=C)C(OCC2CCCCC2)=N1

> <standard_relation>
=

> <predicted_activity_value>
6.017457417697057

> <actual_activity_value>
5.657577319177793

> <Publication ID>
nan

> <standard_units>
nM

> hash
10067028176825304050

$$$$
9
XXILIB    08252103513D 0   0.00000     0.00000

 18 19  0     1  0            999 V2000
    0.0000    0.0000   -0.0000 O   0  0  0  0  0  2           0  0  0
    2.0548   -0.0000    1.1744 N   0  0  0  0  0  3           0  0  0
    4.0966    0.0301   -0.0471 N   0  0  0  0  0  3           0  0  0
    1.2923    0.0187   -2.4413 N   0  0  0  0  0  3           0  0  0
    4.1124    0.0008    2.3034 N   0  0  0  0  0  3           0  0  0
    4.1257    0.0447   -2.4087 N   0  0  0  0  0  3           0  0  0
    1.3856    0.0000    0.0000 C   0  0  0  0  0  4           0  0  0
    3.4023    0.0098    1.1137 C   0  0  0  0  0  4           0  0  0
    3.4070    0.0478   -1.2143 C   0  0  0  0  0  4           0  0  0
    2.0144    0.0045   -1.2386 C   0  0  0  0  0  4           0  0  0
   -0.5860   -0.0000    1.3018 C   0  0  0  0  0  4           0  0  0
    0.1324   -0.5451   -2.4451 C   0  0  0  0  0  4           0  0  0
   -2.1044   -0.0000    1.1524 C   0  0  1  0  0  4           0  0  0
   -2.6204    1.2317    0.3872 C   0  0  0  0  0  4           0  0  0
   -2.8023   -0.1158    2.5158 C   0  0  0  0  0  4           0  0  0
   -2.5420    2.5187    1.2069 C   0  0  0  0  0  4           0  0  0
   -2.7183    1.1691    3.3379 C   0  0  0  0  0  4           0  0  0
   -3.2388    2.3710    2.5561 C   0  0  0  0  0  4           0  0  0
  1  7  1  0     0  0
  1 11  1  0     0  0
  2  7  2  0     0  0
  2  8  1  0     0  0
  3  8  2  0     0  0
  3  9  1  0     0  0
  4 10  1  0     0  0
  4 12  2  0     0  0
  5  8  1  0     0  0
  6  9  1  0     0  0
  7 10  1  0     0  0
  9 10  2  0     0  0
 11 13  1  0     0  0
 13 14  1  0     0  0
 13 15  1  0     0  0
 14 16  1  0     0  0
 15 17  1  0     0  0
 16 18  1  0     0  0
 17 18  1  0     0  0
M  END
> <Compound >
10

> <standard_type>
pIC50

> <# Confs.>
25

> <canonical_smiles>
NC1=NC(N)=C(N=C)C(OCC2CCCCC2)=N1

> <standard_relation>
=

> <predicted_activity_value>
6.017457417697057

> <actual_activity_value>
5.657577319177793

> <Publication ID>
nan

> <standard_units>
nM

> hash
10067028176825304050

$$$$
9
XXILIB    08252103513D 0   0.00000     0.00000

 18 19  0     1  0            999 V2000
    0.0000    0.0000   -0.0000 O   0  0  0  0  0  2           0  0  0
    2.0548   -0.0000    1.1744 N   0  0  0  0  0  3           0  0  0
    4.0966    0.0301   -0.0471 N   0  0  0  0  0  3           0  0  0
    1.2923    0.0187   -2.4413 N   0  0  0  0  0  3           0  0  0
    4.1124    0.0008    2.3034 N   0  0  0  0  0  3           0  0  0
    4.1257    0.0447   -2.4087 N   0  0  0  0  0  3           0  0  0
    1.3856    0.0000    0.0000 C   0  0  0  0  0  4           0  0  0
    3.4023    0.0098    1.1137 C   0  0  0  0  0  4           0  0  0
    3.4070    0.0478   -1.2143 C   0  0  0  0  0  4           0  0  0
    2.0144    0.0045   -1.2386 C   0  0  0  0  0  4           0  0  0
   -0.5860   -0.0000    1.3018 C   0  0  0  0  0  4           0  0  0
    0.1407    0.5993   -2.4366 C   0  0  0  0  0  4           0  0  0
   -2.1044   -0.0000    1.1524 C   0  0  1  0  0  4           0  0  0
   -2.8293   -0.0000    2.5102 C   0  0  0  0  0  4           0  0  0
   -2.5832   -1.1763    0.2886 C   0  0  0  0  0  4           0  0  0
   -2.7412   -1.3434    3.2328 C   0  0  0  0  0  4           0  0  0
   -2.4893   -2.5201    1.0090 C   0  0  0  0  0  4           0  0  0
   -3.2184   -2.4914    2.3485 C   0  0  0  0  0  4           0  0  0
  1  7  1  0     0  0
  1 11  1  0     0  0
  2  7  2  0     0  0
  2  8  1  0     0  0
  3  8  2  0     0  0
  3  9  1  0     0  0
  4 10  1  0     0  0
  4 12  2  0     0  0
  5  8  1  0     0  0
  6  9  1  0     0  0
  7 10  1  0     0  0
  9 10  2  0     0  0
 11 13  1  0     0  0
 13 14  1  0     0  0
 13 15  1  0     0  0
 14 16  1  0     0  0
 15 17  1  0     0  0
 16 18  1  0     0  0
 17 18  1  0     0  0
M  END
> <Compound >
10

> <standard_type>
pIC50

> <# Confs.>
25

> <canonical_smiles>
NC1=NC(N)=C(N=C)C(OCC2CCCCC2)=N1

> <standard_relation>
=

> <predicted_activity_value>
6.017457417697057

> <actual_activity_value>
5.657577319177793

> <Publication ID>
nan

> <standard_units>
nM

> hash
10067028176825304050

$$$$
9
XXILIB    08252103513D 0   0.00000     0.00000

 18 19  0     1  0            999 V2000
    0.0000    0.0000    0.0000 O   0  0  0  0  0  2           0  0  0
    2.0548   -0.0000    1.1744 N   0  0  0  0  0  3           0  0  0
    4.0966    0.0301   -0.0471 N   0  0  0  0  0  3           0  0  0
    1.2923    0.0187   -2.4413 N   0  0  0  0  0  3           0  0  0
    4.1124    0.0008    2.3034 N   0  0  0  0  0  3           0  0  0
    4.1257    0.0447   -2.4087 N   0  0  0  0  0  3           0  0  0
    1.3856    0.0000    0.0000 C   0  0  0  0  0  4           0  0  0
    3.4023    0.0098    1.1137 C   0  0  0  0  0  4           0  0  0
    3.4070    0.0478   -1.2143 C   0  0  0  0  0  4           0  0  0
    2.0144    0.0045   -1.2386 C   0  0  0  0  0  4           0  0  0
   -0.5860    0.0000    1.3018 C   0  0  0  0  0  4           0  0  0
    0.1324   -0.5451   -2.4451 C   0  0  0  0  0  4           0  0  0
   -0.7860    1.4458    1.7459 C   0  0  1  0  0  4           0  0  0
   -1.7120    2.2060    0.7811 C   0  0  0  0  0  4           0  0  0
   -1.3343    1.4942    3.1786 C   0  0  0  0  0  4           0  0  0
   -1.9684    3.6365    1.2507 C   0  0  0  0  0  4           0  0  0
   -1.5881    2.9266    3.6415 C   0  0  0  0  0  4           0  0  0
   -2.5036    3.6748    2.6783 C   0  0  0  0  0  4           0  0  0
  1  7  1  0     0  0
  1 11  1  0     0  0
  2  7  2  0     0  0
  2  8  1  0     0  0
  3  8  2  0     0  0
  3  9  1  0     0  0
  4 10  1  0     0  0
  4 12  2  0     0  0
  5  8  1  0     0  0
  6  9  1  0     0  0
  7 10  1  0     0  0
  9 10  2  0     0  0
 11 13  1  0     0  0
 13 14  1  0     0  0
 13 15  1  0     0  0
 14 16  1  0     0  0
 15 17  1  0     0  0
 16 18  1  0     0  0
 17 18  1  0     0  0
M  END
> <Compound >
10

> <standard_type>
pIC50

> <# Confs.>
25

> <canonical_smiles>
NC1=NC(N)=C(N=C)C(OCC2CCCCC2)=N1

> <standard_relation>
=

> <predicted_activity_value>
6.017457417697057

> <actual_activity_value>
5.657577319177793

> <Publication ID>
nan

> <standard_units>
nM

> hash
10067028176825304050

$$$$
9
XXILIB    08252103513D 0   0.00000     0.00000

 18 19  0     1  0            999 V2000
    0.0000    0.0000    0.0000 O   0  0  0  0  0  2           0  0  0
    2.0548   -0.5872    1.0170 N   0  0  0  0  0  3           0  0  0
    4.0966    0.0497   -0.0257 N   0  0  0  0  0  3           0  0  0
    1.2923    1.2368   -2.1049 N   0  0  0  0  0  3           0  0  0
    4.1124   -1.1510    1.9952 N   0  0  0  0  0  3           0  0  0
    4.1257    1.2431   -2.0636 N   0  0  0  0  0  3           0  0  0
    1.3856    0.0000    0.0000 C   0  0  0  0  0  4           0  0  0
    3.4023   -0.5484    0.9693 C   0  0  0  0  0  4           0  0  0
    3.4070    0.6486   -1.0277 C   0  0  0  0  0  4           0  0  0
    2.0144    0.6232   -1.0704 C   0  0  0  0  0  4           0  0  0
   -0.5860   -0.0000    1.3018 C   0  0  0  0  0  4           0  0  0
    0.1324    0.7505   -2.3900 C   0  0  0  0  0  4           0  0  0
   -1.9277   -0.7229    1.2320 C   0  0  1  0  0  4           0  0  0
   -1.7573   -2.1773    0.7607 C   0  0  0  0  0  4           0  0  0
   -2.6347   -0.6708    2.5931 C   0  0  0  0  0  4           0  0  0
   -3.0873   -2.9281    0.7470 C   0  0  0  0  0  4           0  0  0
   -3.9631   -1.4229    2.5723 C   0  0  0  0  0  4           0  0  0
   -3.7867   -2.8624    2.1007 C   0  0  0  0  0  4           0  0  0
  1  7  1  0     0  0
  1 11  1  0     0  0
  2  7  2  0     0  0
  2  8  1  0     0  0
  3  8  2  0     0  0
  3  9  1  0     0  0
  4 10  1  0     0  0
  4 12  2  0     0  0
  5  8  1  0     0  0
  6  9  1  0     0  0
  7 10  1  0     0  0
  9 10  2  0     0  0
 11 13  1  0     0  0
 13 14  1  0     0  0
 13 15  1  0     0  0
 14 16  1  0     0  0
 15 17  1  0     0  0
 16 18  1  0     0  0
 17 18  1  0     0  0
M  END
> <Compound >
10

> <standard_type>
pIC50

> <# Confs.>
25

> <canonical_smiles>
NC1=NC(N)=C(N=C)C(OCC2CCCCC2)=N1

> <standard_relation>
=

> <predicted_activity_value>
6.017457417697057

> <actual_activity_value>
5.657577319177793

> <Publication ID>
nan

> <standard_units>
nM

> hash
10067028176825304050

$$$$
9
XXILIB    08252103513D 0   0.00000     0.00000

 18 19  0     1  0            999 V2000
    0.0000    0.0000    0.0000 O   0  0  0  0  0  2           0  0  0
    2.0548   -0.0000    1.1744 N   0  0  0  0  0  3           0  0  0
    4.0966    0.0301   -0.0471 N   0  0  0  0  0  3           0  0  0
    1.2923    0.0187   -2.4413 N   0  0  0  0  0  3           0  0  0
    4.1124    0.0008    2.3034 N   0  0  0  0  0  3           0  0  0
    4.1257    0.0447   -2.4087 N   0  0  0  0  0  3           0  0  0
    1.3856    0.0000    0.0000 C   0  0  0  0  0  4           0  0  0
    3.4023    0.0098    1.1137 C   0  0  0  0  0  4           0  0  0
    3.4070    0.0478   -1.2143 C   0  0  0  0  0  4           0  0  0
    2.0144    0.0045   -1.2386 C   0  0  0  0  0  4           0  0  0
   -0.5860   -0.0000    1.3018 C   0  0  0  0  0  4           0  0  0
    0.1407    0.5993   -2.4366 C   0  0  0  0  0  4           0  0  0
   -1.9277   -0.7229    1.2320 C   0  0  1  0  0  4           0  0  0
   -2.8885   -0.0286    0.2515 C   0  0  0  0  0  4           0  0  0
   -1.7232   -2.1938    0.8444 C   0  0  0  0  0  4           0  0  0
   -4.2123   -0.7802    0.1275 C   0  0  0  0  0  4           0  0  0
   -3.0500   -2.9388    0.7224 C   0  0  0  0  0  4           0  0  0
   -3.9983   -2.2427   -0.2481 C   0  0  0  0  0  4           0  0  0
  1  7  1  0     0  0
  1 11  1  0     0  0
  2  7  2  0     0  0
  2  8  1  0     0  0
  3  8  2  0     0  0
  3  9  1  0     0  0
  4 10  1  0     0  0
  4 12  2  0     0  0
  5  8  1  0     0  0
  6  9  1  0     0  0
  7 10  1  0     0  0
  9 10  2  0     0  0
 11 13  1  0     0  0
 13 14  1  0     0  0
 13 15  1  0     0  0
 14 16  1  0     0  0
 15 17  1  0     0  0
 16 18  1  0     0  0
 17 18  1  0     0  0
M  END
> <Compound >
10

> <standard_type>
pIC50

> <# Confs.>
25

> <canonical_smiles>
NC1=NC(N)=C(N=C)C(OCC2CCCCC2)=N1

> <standard_relation>
=

> <predicted_activity_value>
6.017457417697057

> <actual_activity_value>
5.657577319177793

> <Publication ID>
nan

> <standard_units>
nM

> hash
10067028176825304050

$$$$
9
XXILIB    08252103513D 0   0.00000     0.00000

 18 19  0     1  0            999 V2000
    0.0000    0.0000    0.0000 O   0  0  0  0  0  2           0  0  0
    2.0548   -0.5872    1.0170 N   0  0  0  0  0  3           0  0  0
    4.0966    0.0497   -0.0257 N   0  0  0  0  0  3           0  0  0
    1.2923    1.2368   -2.1049 N   0  0  0  0  0  3           0  0  0
    4.1124   -1.1510    1.9952 N   0  0  0  0  0  3           0  0  0
    4.1257    1.2431   -2.0636 N   0  0  0  0  0  3           0  0  0
    1.3856    0.0000    0.0000 C   0  0  0  0  0  4           0  0  0
    3.4023   -0.5484    0.9693 C   0  0  0  0  0  4           0  0  0
    3.4070    0.6486   -1.0277 C   0  0  0  0  0  4           0  0  0
    2.0144    0.6232   -1.0704 C   0  0  0  0  0  4           0  0  0
   -0.5860    0.0000    1.3018 C   0  0  0  0  0  4           0  0  0
    0.1324    0.7505   -2.3900 C   0  0  0  0  0  4           0  0  0
   -0.7860   -1.4458    1.7459 C   0  0  1  0  0  4           0  0  0
   -1.4167   -1.5200    3.1470 C   0  0  0  0  0  4           0  0  0
   -1.6408   -2.2062    0.7229 C   0  0  0  0  0  4           0  0  0
   -1.6782   -2.9626    3.5751 C   0  0  0  0  0  4           0  0  0
   -1.8982   -3.6470    1.1569 C   0  0  0  0  0  4           0  0  0
   -2.5199   -3.7126    2.5479 C   0  0  0  0  0  4           0  0  0
  1  7  1  0     0  0
  1 11  1  0     0  0
  2  7  2  0     0  0
  2  8  1  0     0  0
  3  8  2  0     0  0
  3  9  1  0     0  0
  4 10  1  0     0  0
  4 12  2  0     0  0
  5  8  1  0     0  0
  6  9  1  0     0  0
  7 10  1  0     0  0
  9 10  2  0     0  0
 11 13  1  0     0  0
 13 14  1  0     0  0
 13 15  1  0     0  0
 14 16  1  0     0  0
 15 17  1  0     0  0
 16 18  1  0     0  0
 17 18  1  0     0  0
M  END
> <Compound >
10

> <standard_type>
pIC50

> <# Confs.>
25

> <canonical_smiles>
NC1=NC(N)=C(N=C)C(OCC2CCCCC2)=N1

> <standard_relation>
=

> <predicted_activity_value>
6.017457417697057

> <actual_activity_value>
5.657577319177793

> <Publication ID>
nan

> <standard_units>
nM

> hash
10067028176825304050

$$$$
9
XXILIB    08252103513D 0   0.00000     0.00000

 18 19  0     1  0            999 V2000
    0.0000    0.0000    0.0000 O   0  0  0  0  0  2           0  0  0
    2.0548   -0.5872    1.0170 N   0  0  0  0  0  3           0  0  0
    4.0966    0.0497   -0.0257 N   0  0  0  0  0  3           0  0  0
    1.2923    1.2368   -2.1049 N   0  0  0  0  0  3           0  0  0
    4.1124   -1.1510    1.9952 N   0  0  0  0  0  3           0  0  0
    4.1257    1.2431   -2.0636 N   0  0  0  0  0  3           0  0  0
    1.3856    0.0000    0.0000 C   0  0  0  0  0  4           0  0  0
    3.4023   -0.5484    0.9693 C   0  0  0  0  0  4           0  0  0
    3.4070    0.6486   -1.0277 C   0  0  0  0  0  4           0  0  0
    2.0144    0.6232   -1.0704 C   0  0  0  0  0  4           0  0  0
   -0.5860   -0.0000    1.3018 C   0  0  0  0  0  4           0  0  0
    0.1324    0.7505   -2.3900 C   0  0  0  0  0  4           0  0  0
   -1.9277   -0.7229    1.2320 C   0  0  1  0  0  4           0  0  0
   -2.6170   -0.7600    2.6067 C   0  0  0  0  0  4           0  0  0
   -2.8362   -0.0644    0.1848 C   0  0  0  0  0  4           0  0  0
   -3.9892   -1.4269    2.5348 C   0  0  0  0  0  4           0  0  0
   -4.2056   -0.7357    0.1182 C   0  0  0  0  0  4           0  0  0
   -4.8809   -0.7721    1.4851 C   0  0  0  0  0  4           0  0  0
  1  7  1  0     0  0
  1 11  1  0     0  0
  2  7  2  0     0  0
  2  8  1  0     0  0
  3  8  2  0     0  0
  3  9  1  0     0  0
  4 10  1  0     0  0
  4 12  2  0     0  0
  5  8  1  0     0  0
  6  9  1  0     0  0
  7 10  1  0     0  0
  9 10  2  0     0  0
 11 13  1  0     0  0
 13 14  1  0     0  0
 13 15  1  0     0  0
 14 16  1  0     0  0
 15 17  1  0     0  0
 16 18  1  0     0  0
 17 18  1  0     0  0
M  END
> <Compound >
10

> <standard_type>
pIC50

> <# Confs.>
25

> <canonical_smiles>
NC1=NC(N)=C(N=C)C(OCC2CCCCC2)=N1

> <standard_relation>
=

> <predicted_activity_value>
6.017457417697057

> <actual_activity_value>
5.657577319177793

> <Publication ID>
nan

> <standard_units>
nM

> hash
10067028176825304050

$$$$
9
XXILIB    08252103513D 0   0.00000     0.00000

 18 19  0     1  0            999 V2000
    0.0000    0.0000   -0.0000 O   0  0  0  0  0  2           0  0  0
    2.0548    0.5872    1.0170 N   0  0  0  0  0  3           0  0  0
    4.0966    0.0025   -0.0559 N   0  0  0  0  0  3           0  0  0
    1.2923   -1.2045   -2.1235 N   0  0  0  0  0  3           0  0  0
    4.1124    1.1524    1.9944 N   0  0  0  0  0  3           0  0  0
    4.1257   -1.1656   -2.1084 N   0  0  0  0  0  3           0  0  0
    1.3856    0.0000    0.0000 C   0  0  0  0  0  4           0  0  0
    3.4023    0.5653    0.9596 C   0  0  0  0  0  4           0  0  0
    3.4070   -0.5657   -1.0755 C   0  0  0  0  0  4           0  0  0
    2.0144   -0.6154   -1.0749 C   0  0  0  0  0  4           0  0  0
   -0.5860    0.0000    1.3018 C   0  0  0  0  0  4           0  0  0
    0.1407   -0.6993   -2.4098 C   0  0  0  0  0  4           0  0  0
   -1.9277    0.7229    1.2320 C   0  0  1  0  0  4           0  0  0
   -2.8885    0.0286    0.2515 C   0  0  0  0  0  4           0  0  0
   -2.5544    0.8234    2.6293 C   0  0  0  0  0  4           0  0  0
   -4.2559    0.7084    0.2210 C   0  0  0  0  0  4           0  0  0
   -3.9205    1.5037    2.5915 C   0  0  0  0  0  4           0  0  0
   -4.8660    0.8124    1.6148 C   0  0  0  0  0  4           0  0  0
  1  7  1  0     0  0
  1 11  1  0     0  0
  2  7  2  0     0  0
  2  8  1  0     0  0
  3  8  2  0     0  0
  3  9  1  0     0  0
  4 10  1  0     0  0
  4 12  2  0     0  0
  5  8  1  0     0  0
  6  9  1  0     0  0
  7 10  1  0     0  0
  9 10  2  0     0  0
 11 13  1  0     0  0
 13 14  1  0     0  0
 13 15  1  0     0  0
 14 16  1  0     0  0
 15 17  1  0     0  0
 16 18  1  0     0  0
 17 18  1  0     0  0
M  END
> <Compound >
10

> <standard_type>
pIC50

> <# Confs.>
25

> <canonical_smiles>
NC1=NC(N)=C(N=C)C(OCC2CCCCC2)=N1

> <standard_relation>
=

> <predicted_activity_value>
6.017457417697057

> <actual_activity_value>
5.657577319177793

> <Publication ID>
nan

> <standard_units>
nM

> hash
10067028176825304050

$$$$
9
XXILIB    08252103513D 0   0.00000     0.00000

 18 19  0     1  0            999 V2000
    0.0000    0.0000   -0.0000 O   0  0  0  0  0  2           0  0  0
    2.0548   -1.0170    0.5872 N   0  0  0  0  0  3           0  0  0
    4.0966    0.0559    0.0025 N   0  0  0  0  0  3           0  0  0
    1.2923    2.1235   -1.2045 N   0  0  0  0  0  3           0  0  0
    4.1124   -1.9944    1.1524 N   0  0  0  0  0  3           0  0  0
    4.1257    2.1084   -1.1656 N   0  0  0  0  0  3           0  0  0
    1.3856    0.0000    0.0000 C   0  0  0  0  0  4           0  0  0
    3.4023   -0.9596    0.5653 C   0  0  0  0  0  4           0  0  0
    3.4070    1.0755   -0.5657 C   0  0  0  0  0  4           0  0  0
    2.0144    1.0749   -0.6154 C   0  0  0  0  0  4           0  0  0
   -0.5860    0.0000    1.3018 C   0  0  0  0  0  4           0  0  0
    0.1324    1.8450   -1.6946 C   0  0  0  0  0  4           0  0  0
   -1.9277    0.7229    1.2320 C   0  0  1  0  0  4           0  0  0
   -2.8885    0.0286    0.2515 C   0  0  0  0  0  4           0  0  0
   -2.5544    0.8234    2.6293 C   0  0  0  0  0  4           0  0  0
   -4.2559    0.7084    0.2210 C   0  0  0  0  0  4           0  0  0
   -3.9205    1.5037    2.5915 C   0  0  0  0  0  4           0  0  0
   -4.8660    0.8124    1.6148 C   0  0  0  0  0  4           0  0  0
  1  7  1  0     0  0
  1 11  1  0     0  0
  2  7  2  0     0  0
  2  8  1  0     0  0
  3  8  2  0     0  0
  3  9  1  0     0  0
  4 10  1  0     0  0
  4 12  2  0     0  0
  5  8  1  0     0  0
  6  9  1  0     0  0
  7 10  1  0     0  0
  9 10  2  0     0  0
 11 13  1  0     0  0
 13 14  1  0     0  0
 13 15  1  0     0  0
 14 16  1  0     0  0
 15 17  1  0     0  0
 16 18  1  0     0  0
 17 18  1  0     0  0
M  END
> <Compound >
10

> <standard_type>
pIC50

> <# Confs.>
25

> <canonical_smiles>
NC1=NC(N)=C(N=C)C(OCC2CCCCC2)=N1

> <standard_relation>
=

> <predicted_activity_value>
6.017457417697057

> <actual_activity_value>
5.657577319177793

> <Publication ID>
nan

> <standard_units>
nM

> hash
10067028176825304050

$$$$
9
XXILIB    08252103513D 0   0.00000     0.00000

 18 19  0     1  0            999 V2000
    0.0000    0.0000   -0.0000 O   0  0  0  0  0  2           0  0  0
    2.0548   -0.5872    1.0170 N   0  0  0  0  0  3           0  0  0
    4.0966    0.0497   -0.0257 N   0  0  0  0  0  3           0  0  0
    1.2923    1.2368   -2.1049 N   0  0  0  0  0  3           0  0  0
    4.1124   -1.1510    1.9952 N   0  0  0  0  0  3           0  0  0
    4.1257    1.2431   -2.0636 N   0  0  0  0  0  3           0  0  0
    1.3856    0.0000    0.0000 C   0  0  0  0  0  4           0  0  0
    3.4023   -0.5484    0.9693 C   0  0  0  0  0  4           0  0  0
    3.4070    0.6486   -1.0277 C   0  0  0  0  0  4           0  0  0
    2.0144    0.6232   -1.0704 C   0  0  0  0  0  4           0  0  0
   -0.5860   -0.0000    1.3018 C   0  0  0  0  0  4           0  0  0
    0.1324    0.7505   -2.3900 C   0  0  0  0  0  4           0  0  0
   -1.4452    1.2521    1.4492 C   0  0  1  0  0  4           0  0  0
   -2.5663    1.2901    0.3965 C   0  0  0  0  0  4           0  0  0
   -2.0263    1.3381    2.8670 C   0  0  0  0  0  4           0  0  0
   -3.4698    2.5085    0.5748 C   0  0  0  0  0  4           0  0  0
   -2.9281    2.5579    3.0382 C   0  0  0  0  0  4           0  0  0
   -4.0345    2.5907    1.9891 C   0  0  0  0  0  4           0  0  0
  1  7  1  0     0  0
  1 11  1  0     0  0
  2  7  2  0     0  0
  2  8  1  0     0  0
  3  8  2  0     0  0
  3  9  1  0     0  0
  4 10  1  0     0  0
  4 12  2  0     0  0
  5  8  1  0     0  0
  6  9  1  0     0  0
  7 10  1  0     0  0
  9 10  2  0     0  0
 11 13  1  0     0  0
 13 14  1  0     0  0
 13 15  1  0     0  0
 14 16  1  0     0  0
 15 17  1  0     0  0
 16 18  1  0     0  0
 17 18  1  0     0  0
M  END
> <Compound >
10

> <standard_type>
pIC50

> <# Confs.>
25

> <canonical_smiles>
NC1=NC(N)=C(N=C)C(OCC2CCCCC2)=N1

> <standard_relation>
=

> <predicted_activity_value>
6.017457417697057

> <actual_activity_value>
5.657577319177793

> <Publication ID>
nan

> <standard_units>
nM

> hash
10067028176825304050

$$$$
9
XXILIB    08252103513D 0   0.00000     0.00000

 18 19  0     1  0            999 V2000
    0.0000    0.0000   -0.0000 O   0  0  0  0  0  2           0  0  0
    2.0548    0.5872    1.0170 N   0  0  0  0  0  3           0  0  0
    4.0966    0.0025   -0.0559 N   0  0  0  0  0  3           0  0  0
    1.2923   -1.2045   -2.1235 N   0  0  0  0  0  3           0  0  0
    4.1124    1.1524    1.9944 N   0  0  0  0  0  3           0  0  0
    4.1257   -1.1656   -2.1084 N   0  0  0  0  0  3           0  0  0
    1.3856    0.0000    0.0000 C   0  0  0  0  0  4           0  0  0
    3.4023    0.5653    0.9596 C   0  0  0  0  0  4           0  0  0
    3.4070   -0.5657   -1.0755 C   0  0  0  0  0  4           0  0  0
    2.0144   -0.6154   -1.0749 C   0  0  0  0  0  4           0  0  0
   -0.5860    0.0000    1.3018 C   0  0  0  0  0  4           0  0  0
    0.1407   -0.6993   -2.4098 C   0  0  0  0  0  4           0  0  0
   -1.9277    0.7229    1.2320 C   0  0  1  0  0  4           0  0  0
   -2.6170    0.7600    2.6067 C   0  0  0  0  0  4           0  0  0
   -1.7424    2.1418    0.6772 C   0  0  0  0  0  4           0  0  0
   -3.9319    1.5357    2.5606 C   0  0  0  0  0  4           0  0  0
   -3.0602    2.9113    0.6338 C   0  0  0  0  0  4           0  0  0
   -3.7393    2.9405    1.9990 C   0  0  0  0  0  4           0  0  0
  1  7  1  0     0  0
  1 11  1  0     0  0
  2  7  2  0     0  0
  2  8  1  0     0  0
  3  8  2  0     0  0
  3  9  1  0     0  0
  4 10  1  0     0  0
  4 12  2  0     0  0
  5  8  1  0     0  0
  6  9  1  0     0  0
  7 10  1  0     0  0
  9 10  2  0     0  0
 11 13  1  0     0  0
 13 14  1  0     0  0
 13 15  1  0     0  0
 14 16  1  0     0  0
 15 17  1  0     0  0
 16 18  1  0     0  0
 17 18  1  0     0  0
M  END
> <Compound >
10

> <standard_type>
pIC50

> <# Confs.>
25

> <canonical_smiles>
NC1=NC(N)=C(N=C)C(OCC2CCCCC2)=N1

> <standard_relation>
=

> <predicted_activity_value>
6.017457417697057

> <actual_activity_value>
5.657577319177793

> <Publication ID>
nan

> <standard_units>
nM

> hash
10067028176825304050

$$$$
9
XXILIB    08252103513D 0   0.00000     0.00000

 18 19  0     1  0            999 V2000
    0.0000    0.0000   -0.0000 O   0  0  0  0  0  2           0  0  0
    2.0548    0.5872    1.0170 N   0  0  0  0  0  3           0  0  0
    4.0966    0.0025   -0.0559 N   0  0  0  0  0  3           0  0  0
    1.2923   -1.2045   -2.1235 N   0  0  0  0  0  3           0  0  0
    4.1124    1.1524    1.9944 N   0  0  0  0  0  3           0  0  0
    4.1257   -1.1656   -2.1084 N   0  0  0  0  0  3           0  0  0
    1.3856    0.0000    0.0000 C   0  0  0  0  0  4           0  0  0
    3.4023    0.5653    0.9596 C   0  0  0  0  0  4           0  0  0
    3.4070   -0.5657   -1.0755 C   0  0  0  0  0  4           0  0  0
    2.0144   -0.6154   -1.0749 C   0  0  0  0  0  4           0  0  0
   -0.5860    0.0000    1.3018 C   0  0  0  0  0  4           0  0  0
    0.1407   -0.6993   -2.4098 C   0  0  0  0  0  4           0  0  0
   -1.9277    0.7229    1.2320 C   0  0  1  0  0  4           0  0  0
   -1.7573    2.1773    0.7607 C   0  0  0  0  0  4           0  0  0
   -2.8972   -0.0363    0.3159 C   0  0  0  0  0  4           0  0  0
   -3.1010    2.8910    0.6278 C   0  0  0  0  0  4           0  0  0
   -4.2379    0.6824    0.1877 C   0  0  0  0  0  4           0  0  0
   -4.0607    2.1243   -0.2762 C   0  0  0  0  0  4           0  0  0
  1  7  1  0     0  0
  1 11  1  0     0  0
  2  7  2  0     0  0
  2  8  1  0     0  0
  3  8  2  0     0  0
  3  9  1  0     0  0
  4 10  1  0     0  0
  4 12  2  0     0  0
  5  8  1  0     0  0
  6  9  1  0     0  0
  7 10  1  0     0  0
  9 10  2  0     0  0
 11 13  1  0     0  0
 13 14  1  0     0  0
 13 15  1  0     0  0
 14 16  1  0     0  0
 15 17  1  0     0  0
 16 18  1  0     0  0
 17 18  1  0     0  0
M  END
> <Compound >
10

> <standard_type>
pIC50

> <# Confs.>
25

> <canonical_smiles>
NC1=NC(N)=C(N=C)C(OCC2CCCCC2)=N1

> <standard_relation>
=

> <predicted_activity_value>
6.017457417697057

> <actual_activity_value>
5.657577319177793

> <Publication ID>
nan

> <standard_units>
nM

> hash
10067028176825304050

$$$$
9
XXILIB    08252103513D 0   0.00000     0.00000

 18 19  0     1  0            999 V2000
    0.0000    0.0000   -0.0000 O   0  0  0  0  0  2           0  0  0
    2.0548   -0.5872    1.0170 N   0  0  0  0  0  3           0  0  0
    4.0966    0.0497   -0.0257 N   0  0  0  0  0  3           0  0  0
    1.2923    1.2368   -2.1049 N   0  0  0  0  0  3           0  0  0
    4.1124   -1.1510    1.9952 N   0  0  0  0  0  3           0  0  0
    4.1257    1.2431   -2.0636 N   0  0  0  0  0  3           0  0  0
    1.3856    0.0000    0.0000 C   0  0  0  0  0  4           0  0  0
    3.4023   -0.5484    0.9693 C   0  0  0  0  0  4           0  0  0
    3.4070    0.6486   -1.0277 C   0  0  0  0  0  4           0  0  0
    2.0144    0.6232   -1.0704 C   0  0  0  0  0  4           0  0  0
   -0.5860   -0.0000    1.3018 C   0  0  0  0  0  4           0  0  0
    0.1324    0.7505   -2.3900 C   0  0  0  0  0  4           0  0  0
   -1.4452    1.2521    1.4492 C   0  0  1  0  0  4           0  0  0
   -0.6070    2.5307    1.2785 C   0  0  0  0  0  4           0  0  0
   -2.6069    1.2247    0.4466 C   0  0  0  0  0  4           0  0  0
   -1.4689    3.7887    1.3625 C   0  0  0  0  0  4           0  0  0
   -3.4641    2.4847    0.5360 C   0  0  0  0  0  4           0  0  0
   -2.6259    3.7478    0.3697 C   0  0  0  0  0  4           0  0  0
  1  7  1  0     0  0
  1 11  1  0     0  0
  2  7  2  0     0  0
  2  8  1  0     0  0
  3  8  2  0     0  0
  3  9  1  0     0  0
  4 10  1  0     0  0
  4 12  2  0     0  0
  5  8  1  0     0  0
  6  9  1  0     0  0
  7 10  1  0     0  0
  9 10  2  0     0  0
 11 13  1  0     0  0
 13 14  1  0     0  0
 13 15  1  0     0  0
 14 16  1  0     0  0
 15 17  1  0     0  0
 16 18  1  0     0  0
 17 18  1  0     0  0
M  END
> <Compound >
10

> <standard_type>
pIC50

> <# Confs.>
25

> <canonical_smiles>
NC1=NC(N)=C(N=C)C(OCC2CCCCC2)=N1

> <standard_relation>
=

> <predicted_activity_value>
6.017457417697057

> <actual_activity_value>
5.657577319177793

> <Publication ID>
nan

> <standard_units>
nM

> hash
10067028176825304050

$$$$
9
XXILIB    08252103513D 0   0.00000     0.00000

 18 19  0     1  0            999 V2000
    0.0000    0.0000   -0.0000 O   0  0  0  0  0  2           0  0  0
    2.0548   -0.5872    1.0170 N   0  0  0  0  0  3           0  0  0
    4.0966    0.0497   -0.0257 N   0  0  0  0  0  3           0  0  0
    1.2923    1.2368   -2.1049 N   0  0  0  0  0  3           0  0  0
    4.1124   -1.1510    1.9952 N   0  0  0  0  0  3           0  0  0
    4.1257    1.2431   -2.0636 N   0  0  0  0  0  3           0  0  0
    1.3856    0.0000    0.0000 C   0  0  0  0  0  4           0  0  0
    3.4023   -0.5484    0.9693 C   0  0  0  0  0  4           0  0  0
    3.4070    0.6486   -1.0277 C   0  0  0  0  0  4           0  0  0
    2.0144    0.6232   -1.0704 C   0  0  0  0  0  4           0  0  0
   -0.5860    0.0000    1.3018 C   0  0  0  0  0  4           0  0  0
    0.1324    0.7505   -2.3900 C   0  0  0  0  0  4           0  0  0
   -1.9277    0.7229    1.2320 C   0  0  1  0  0  4           0  0  0
   -2.6485    0.7806    2.5897 C   0  0  0  0  0  4           0  0  0
   -2.8500    0.1701    0.1318 C   0  0  0  0  0  4           0  0  0
   -3.4072   -0.4919    2.9579 C   0  0  0  0  0  4           0  0  0
   -3.6075   -1.0975    0.5188 C   0  0  0  0  0  4           0  0  0
   -4.3454   -0.9336    1.8416 C   0  0  0  0  0  4           0  0  0
  1  7  1  0     0  0
  1 11  1  0     0  0
  2  7  2  0     0  0
  2  8  1  0     0  0
  3  8  2  0     0  0
  3  9  1  0     0  0
  4 10  1  0     0  0
  4 12  2  0     0  0
  5  8  1  0     0  0
  6  9  1  0     0  0
  7 10  1  0     0  0
  9 10  2  0     0  0
 11 13  1  0     0  0
 13 14  1  0     0  0
 13 15  1  0     0  0
 14 16  1  0     0  0
 15 17  1  0     0  0
 16 18  1  0     0  0
 17 18  1  0     0  0
M  END
> <Compound >
10

> <standard_type>
pIC50

> <# Confs.>
25

> <canonical_smiles>
NC1=NC(N)=C(N=C)C(OCC2CCCCC2)=N1

> <standard_relation>
=

> <predicted_activity_value>
6.017457417697057

> <actual_activity_value>
5.657577319177793

> <Publication ID>
nan

> <standard_units>
nM

> hash
10067028176825304050

$$$$
9
XXILIB    08252103513D 0   0.00000     0.00000

 18 19  0     1  0            999 V2000
    0.0000    0.0000    0.0000 O   0  0  0  0  0  2           0  0  0
    2.0548    0.5872    1.0170 N   0  0  0  0  0  3           0  0  0
    4.0966    0.0025   -0.0559 N   0  0  0  0  0  3           0  0  0
    1.2923   -1.2045   -2.1235 N   0  0  0  0  0  3           0  0  0
    4.1124    1.1524    1.9944 N   0  0  0  0  0  3           0  0  0
    4.1257   -1.1656   -2.1084 N   0  0  0  0  0  3           0  0  0
    1.3856    0.0000    0.0000 C   0  0  0  0  0  4           0  0  0
    3.4023    0.5653    0.9596 C   0  0  0  0  0  4           0  0  0
    3.4070   -0.5657   -1.0755 C   0  0  0  0  0  4           0  0  0
    2.0144   -0.6154   -1.0749 C   0  0  0  0  0  4           0  0  0
   -0.5860    0.0000    1.3018 C   0  0  0  0  0  4           0  0  0
    0.1407   -0.6993   -2.4098 C   0  0  0  0  0  4           0  0  0
   -0.7860   -1.4458    1.7459 C   0  0  1  0  0  4           0  0  0
   -1.4167   -1.5200    3.1470 C   0  0  0  0  0  4           0  0  0
   -1.6408   -2.2062    0.7229 C   0  0  0  0  0  4           0  0  0
   -1.6782   -2.9626    3.5751 C   0  0  0  0  0  4           0  0  0
   -1.8982   -3.6470    1.1569 C   0  0  0  0  0  4           0  0  0
   -2.5199   -3.7126    2.5479 C   0  0  0  0  0  4           0  0  0
  1  7  1  0     0  0
  1 11  1  0     0  0
  2  7  2  0     0  0
  2  8  1  0     0  0
  3  8  2  0     0  0
  3  9  1  0     0  0
  4 10  1  0     0  0
  4 12  2  0     0  0
  5  8  1  0     0  0
  6  9  1  0     0  0
  7 10  1  0     0  0
  9 10  2  0     0  0
 11 13  1  0     0  0
 13 14  1  0     0  0
 13 15  1  0     0  0
 14 16  1  0     0  0
 15 17  1  0     0  0
 16 18  1  0     0  0
 17 18  1  0     0  0
M  END
> <Compound >
10

> <standard_type>
pIC50

> <# Confs.>
25

> <canonical_smiles>
NC1=NC(N)=C(N=C)C(OCC2CCCCC2)=N1

> <standard_relation>
=

> <predicted_activity_value>
6.017457417697057

> <actual_activity_value>
5.657577319177793

> <Publication ID>
nan

> <standard_units>
nM

> hash
10067028176825304050

$$$$
9
XXILIB    08252103513D 0   0.00000     0.00000

 18 19  0     1  0            999 V2000
    0.0000    0.0000    0.0000 O   0  0  0  0  0  2           0  0  0
    2.0548    0.5872    1.0170 N   0  0  0  0  0  3           0  0  0
    4.0966    0.0025   -0.0559 N   0  0  0  0  0  3           0  0  0
    1.2923   -1.2045   -2.1235 N   0  0  0  0  0  3           0  0  0
    4.1124    1.1524    1.9944 N   0  0  0  0  0  3           0  0  0
    4.1257   -1.1656   -2.1084 N   0  0  0  0  0  3           0  0  0
    1.3856    0.0000    0.0000 C   0  0  0  0  0  4           0  0  0
    3.4023    0.5653    0.9596 C   0  0  0  0  0  4           0  0  0
    3.4070   -0.5657   -1.0755 C   0  0  0  0  0  4           0  0  0
    2.0144   -0.6154   -1.0749 C   0  0  0  0  0  4           0  0  0
   -0.5860   -0.0000    1.3018 C   0  0  0  0  0  4           0  0  0
    0.1407   -0.6993   -2.4098 C   0  0  0  0  0  4           0  0  0
   -1.9277   -0.7229    1.2320 C   0  0  1  0  0  4           0  0  0
   -2.9170   -0.0572    0.2601 C   0  0  0  0  0  4           0  0  0
   -2.5637   -0.9414    2.6155 C   0  0  0  0  0  4           0  0  0
   -3.6520    1.1513    0.8345 C   0  0  0  0  0  4           0  0  0
   -3.3017    0.2737    3.1718 C   0  0  0  0  0  4           0  0  0
   -4.3073    0.8310    2.1721 C   0  0  0  0  0  4           0  0  0
  1  7  1  0     0  0
  1 11  1  0     0  0
  2  7  2  0     0  0
  2  8  1  0     0  0
  3  8  2  0     0  0
  3  9  1  0     0  0
  4 10  1  0     0  0
  4 12  2  0     0  0
  5  8  1  0     0  0
  6  9  1  0     0  0
  7 10  1  0     0  0
  9 10  2  0     0  0
 11 13  1  0     0  0
 13 14  1  0     0  0
 13 15  1  0     0  0
 14 16  1  0     0  0
 15 17  1  0     0  0
 16 18  1  0     0  0
 17 18  1  0     0  0
M  END
> <Compound >
10

> <standard_type>
pIC50

> <# Confs.>
25

> <canonical_smiles>
NC1=NC(N)=C(N=C)C(OCC2CCCCC2)=N1

> <standard_relation>
=

> <predicted_activity_value>
6.017457417697057

> <actual_activity_value>
5.657577319177793

> <Publication ID>
nan

> <standard_units>
nM

> hash
10067028176825304050

$$$$
9
XXILIB    08252103513D 0   0.00000     0.00000

 18 19  0     1  0            999 V2000
    0.0000    0.0000   -0.0000 O   0  0  0  0  0  2           0  0  0
    2.0548   -0.5872    1.0170 N   0  0  0  0  0  3           0  0  0
    4.0966    0.0497   -0.0257 N   0  0  0  0  0  3           0  0  0
    1.2923    1.2368   -2.1049 N   0  0  0  0  0  3           0  0  0
    4.1124   -1.1510    1.9952 N   0  0  0  0  0  3           0  0  0
    4.1257    1.2431   -2.0636 N   0  0  0  0  0  3           0  0  0
    1.3856    0.0000    0.0000 C   0  0  0  0  0  4           0  0  0
    3.4023   -0.5484    0.9693 C   0  0  0  0  0  4           0  0  0
    3.4070    0.6486   -1.0277 C   0  0  0  0  0  4           0  0  0
    2.0144    0.6232   -1.0704 C   0  0  0  0  0  4           0  0  0
   -0.5860   -0.0000    1.3018 C   0  0  0  0  0  4           0  0  0
    0.1324    0.7505   -2.3900 C   0  0  0  0  0  4           0  0  0
   -1.4452    1.2521    1.4492 C   0  0  1  0  0  4           0  0  0
   -2.1097    1.3163    2.8351 C   0  0  0  0  0  4           0  0  0
   -0.6058    2.5103    1.1889 C   0  0  0  0  0  4           0  0  0
   -2.9221    2.5971    3.0151 C   0  0  0  0  0  4           0  0  0
   -1.4238    3.7864    1.3705 C   0  0  0  0  0  4           0  0  0
   -2.0824    3.8411    2.7449 C   0  0  0  0  0  4           0  0  0
  1  7  1  0     0  0
  1 11  1  0     0  0
  2  7  2  0     0  0
  2  8  1  0     0  0
  3  8  2  0     0  0
  3  9  1  0     0  0
  4 10  1  0     0  0
  4 12  2  0     0  0
  5  8  1  0     0  0
  6  9  1  0     0  0
  7 10  1  0     0  0
  9 10  2  0     0  0
 11 13  1  0     0  0
 13 14  1  0     0  0
 13 15  1  0     0  0
 14 16  1  0     0  0
 15 17  1  0     0  0
 16 18  1  0     0  0
 17 18  1  0     0  0
M  END
> <Compound >
10

> <standard_type>
pIC50

> <# Confs.>
25

> <canonical_smiles>
NC1=NC(N)=C(N=C)C(OCC2CCCCC2)=N1

> <standard_relation>
=

> <predicted_activity_value>
6.017457417697057

> <actual_activity_value>
5.657577319177793

> <Publication ID>
nan

> <standard_units>
nM

> hash
10067028176825304050

$$$$
9
XXILIB    08252103513D 0   0.00000     0.00000

 18 19  0     1  0            999 V2000
    0.0000    0.0000    0.0000 O   0  0  0  0  0  2           0  0  0
    2.0548    0.5872    1.0170 N   0  0  0  0  0  3           0  0  0
    4.0966    0.0025   -0.0559 N   0  0  0  0  0  3           0  0  0
    1.2923   -1.2045   -2.1235 N   0  0  0  0  0  3           0  0  0
    4.1124    1.1524    1.9944 N   0  0  0  0  0  3           0  0  0
    4.1257   -1.1656   -2.1084 N   0  0  0  0  0  3           0  0  0
    1.3856    0.0000    0.0000 C   0  0  0  0  0  4           0  0  0
    3.4023    0.5653    0.9596 C   0  0  0  0  0  4           0  0  0
    3.4070   -0.5657   -1.0755 C   0  0  0  0  0  4           0  0  0
    2.0144   -0.6154   -1.0749 C   0  0  0  0  0  4           0  0  0
   -0.5860    0.0000    1.3018 C   0  0  0  0  0  4           0  0  0
    0.1407   -0.6993   -2.4098 C   0  0  0  0  0  4           0  0  0
   -1.4452   -1.2521    1.4492 C   0  0  1  0  0  4           0  0  0
   -0.6070   -2.5307    1.2785 C   0  0  0  0  0  4           0  0  0
   -2.1654   -1.2500    2.8044 C   0  0  0  0  0  4           0  0  0
   -1.4458   -3.7901    1.4860 C   0  0  0  0  0  4           0  0  0
   -3.0018   -2.5112    3.0050 C   0  0  0  0  0  4           0  0  0
   -2.1652   -3.7742    2.8306 C   0  0  0  0  0  4           0  0  0
  1  7  1  0     0  0
  1 11  1  0     0  0
  2  7  2  0     0  0
  2  8  1  0     0  0
  3  8  2  0     0  0
  3  9  1  0     0  0
  4 10  1  0     0  0
  4 12  2  0     0  0
  5  8  1  0     0  0
  6  9  1  0     0  0
  7 10  1  0     0  0
  9 10  2  0     0  0
 11 13  1  0     0  0
 13 14  1  0     0  0
 13 15  1  0     0  0
 14 16  1  0     0  0
 15 17  1  0     0  0
 16 18  1  0     0  0
 17 18  1  0     0  0
M  END
> <Compound >
10

> <standard_type>
pIC50

> <# Confs.>
25

> <canonical_smiles>
NC1=NC(N)=C(N=C)C(OCC2CCCCC2)=N1

> <standard_relation>
=

> <predicted_activity_value>
6.017457417697057

> <actual_activity_value>
5.657577319177793

> <Publication ID>
nan

> <standard_units>
nM

> hash
10067028176825304050

$$$$
9
XXILIB    08252103513D 0   0.00000     0.00000

 18 19  0     1  0            999 V2000
    0.0000    0.0000    0.0000 O   0  0  0  0  0  2           0  0  0
    2.0548   -0.5872    1.0170 N   0  0  0  0  0  3           0  0  0
    4.0966    0.0497   -0.0257 N   0  0  0  0  0  3           0  0  0
    1.2923    1.2368   -2.1049 N   0  0  0  0  0  3           0  0  0
    4.1124   -1.1510    1.9952 N   0  0  0  0  0  3           0  0  0
    4.1257    1.2431   -2.0636 N   0  0  0  0  0  3           0  0  0
    1.3856    0.0000    0.0000 C   0  0  0  0  0  4           0  0  0
    3.4023   -0.5484    0.9693 C   0  0  0  0  0  4           0  0  0
    3.4070    0.6486   -1.0277 C   0  0  0  0  0  4           0  0  0
    2.0144    0.6232   -1.0704 C   0  0  0  0  0  4           0  0  0
   -0.5860   -0.0000    1.3018 C   0  0  0  0  0  4           0  0  0
    0.1324    0.7505   -2.3900 C   0  0  0  0  0  4           0  0  0
   -1.9277   -0.7229    1.2320 C   0  0  1  0  0  4           0  0  0
   -2.6400   -0.7748    2.5954 C   0  0  0  0  0  4           0  0  0
   -1.7736   -2.1373    0.6530 C   0  0  0  0  0  4           0  0  0
   -1.9855   -1.7497    3.5731 C   0  0  0  0  0  4           0  0  0
   -1.1135   -3.1103    1.6283 C   0  0  0  0  0  4           0  0  0
   -1.8417   -3.1430    2.9682 C   0  0  0  0  0  4           0  0  0
  1  7  1  0     0  0
  1 11  1  0     0  0
  2  7  2  0     0  0
  2  8  1  0     0  0
  3  8  2  0     0  0
  3  9  1  0     0  0
  4 10  1  0     0  0
  4 12  2  0     0  0
  5  8  1  0     0  0
  6  9  1  0     0  0
  7 10  1  0     0  0
  9 10  2  0     0  0
 11 13  1  0     0  0
 13 14  1  0     0  0
 13 15  1  0     0  0
 14 16  1  0     0  0
 15 17  1  0     0  0
 16 18  1  0     0  0
 17 18  1  0     0  0
M  END
> <Compound >
10

> <standard_type>
pIC50

> <# Confs.>
25

> <canonical_smiles>
NC1=NC(N)=C(N=C)C(OCC2CCCCC2)=N1

> <standard_relation>
=

> <predicted_activity_value>
6.017457417697057

> <actual_activity_value>
5.657577319177793

> <Publication ID>
nan

> <standard_units>
nM

> hash
10067028176825304050

$$$$
9
XXILIB    08252103513D 0   0.00000     0.00000

 18 19  0     1  0            999 V2000
    0.0000    0.0000    0.0000 O   0  0  0  0  0  2           0  0  0
    2.0548   -0.5872    1.0170 N   0  0  0  0  0  3           0  0  0
    4.0966    0.0497   -0.0257 N   0  0  0  0  0  3           0  0  0
    1.2923    1.2368   -2.1049 N   0  0  0  0  0  3           0  0  0
    4.1124   -1.1510    1.9952 N   0  0  0  0  0  3           0  0  0
    4.1257    1.2431   -2.0636 N   0  0  0  0  0  3           0  0  0
    1.3856    0.0000    0.0000 C   0  0  0  0  0  4           0  0  0
    3.4023   -0.5484    0.9693 C   0  0  0  0  0  4           0  0  0
    3.4070    0.6486   -1.0277 C   0  0  0  0  0  4           0  0  0
    2.0144    0.6232   -1.0704 C   0  0  0  0  0  4           0  0  0
   -0.5860    0.0000    1.3018 C   0  0  0  0  0  4           0  0  0
    0.1324    0.7505   -2.3900 C   0  0  0  0  0  4           0  0  0
   -1.4452   -1.2521    1.4492 C   0  0  1  0  0  4           0  0  0
   -2.5663   -1.2901    0.3965 C   0  0  0  0  0  4           0  0  0
   -0.5733   -2.5122    1.3621 C   0  0  0  0  0  4           0  0  0
   -3.3937   -2.5700    0.4960 C   0  0  0  0  0  4           0  0  0
   -1.4066   -3.7874    1.4622 C   0  0  0  0  0  4           0  0  0
   -2.5179   -3.8161    0.4183 C   0  0  0  0  0  4           0  0  0
  1  7  1  0     0  0
  1 11  1  0     0  0
  2  7  2  0     0  0
  2  8  1  0     0  0
  3  8  2  0     0  0
  3  9  1  0     0  0
  4 10  1  0     0  0
  4 12  2  0     0  0
  5  8  1  0     0  0
  6  9  1  0     0  0
  7 10  1  0     0  0
  9 10  2  0     0  0
 11 13  1  0     0  0
 13 14  1  0     0  0
 13 15  1  0     0  0
 14 16  1  0     0  0
 15 17  1  0     0  0
 16 18  1  0     0  0
 17 18  1  0     0  0
M  END
> <Compound >
10

> <standard_type>
pIC50

> <# Confs.>
25

> <canonical_smiles>
NC1=NC(N)=C(N=C)C(OCC2CCCCC2)=N1

> <standard_relation>
=

> <predicted_activity_value>
6.017457417697057

> <actual_activity_value>
5.657577319177793

> <Publication ID>
nan

> <standard_units>
nM

> hash
10067028176825304050

$$$$
9
XXILIB    08252103513D 0   0.00000     0.00000

 18 19  0     1  0            999 V2000
    0.0000    0.0000    0.0000 O   0  0  0  0  0  2           0  0  0
    2.0548    1.0170    0.5872 N   0  0  0  0  0  3           0  0  0
    4.0966   -0.0257   -0.0497 N   0  0  0  0  0  3           0  0  0
    1.2923   -2.1049   -1.2368 N   0  0  0  0  0  3           0  0  0
    4.1124    1.9952    1.1510 N   0  0  0  0  0  3           0  0  0
    4.1257   -2.0636   -1.2431 N   0  0  0  0  0  3           0  0  0
    1.3856    0.0000    0.0000 C   0  0  0  0  0  4           0  0  0
    3.4023    0.9693    0.5484 C   0  0  0  0  0  4           0  0  0
    3.4070   -1.0277   -0.6486 C   0  0  0  0  0  4           0  0  0
    2.0144   -1.0704   -0.6232 C   0  0  0  0  0  4           0  0  0
   -0.5860   -0.0000    1.3018 C   0  0  0  0  0  4           0  0  0
    0.1407   -1.8105   -1.7373 C   0  0  0  0  0  4           0  0  0
   -1.9277   -0.7229    1.2320 C   0  0  1  0  0  4           0  0  0
   -2.6170   -0.7600    2.6067 C   0  0  0  0  0  4           0  0  0
   -2.8362   -0.0644    0.1848 C   0  0  0  0  0  4           0  0  0
   -3.9892   -1.4269    2.5348 C   0  0  0  0  0  4           0  0  0
   -4.2056   -0.7357    0.1182 C   0  0  0  0  0  4           0  0  0
   -4.8809   -0.7721    1.4851 C   0  0  0  0  0  4           0  0  0
  1  7  1  0     0  0
  1 11  1  0     0  0
  2  7  2  0     0  0
  2  8  1  0     0  0
  3  8  2  0     0  0
  3  9  1  0     0  0
  4 10  1  0     0  0
  4 12  2  0     0  0
  5  8  1  0     0  0
  6  9  1  0     0  0
  7 10  1  0     0  0
  9 10  2  0     0  0
 11 13  1  0     0  0
 13 14  1  0     0  0
 13 15  1  0     0  0
 14 16  1  0     0  0
 15 17  1  0     0  0
 16 18  1  0     0  0
 17 18  1  0     0  0
M  END
> <Compound >
10

> <standard_type>
pIC50

> <# Confs.>
25

> <canonical_smiles>
NC1=NC(N)=C(N=C)C(OCC2CCCCC2)=N1

> <standard_relation>
=

> <predicted_activity_value>
6.017457417697057

> <actual_activity_value>
5.657577319177793

> <Publication ID>
nan

> <standard_units>
nM

> hash
10067028176825304050

$$$$
9
XXILIB    08252103513D 0   0.00000     0.00000

 18 19  0     1  0            999 V2000
    0.0000    0.0000    0.0000 O   0  0  0  0  0  2           0  0  0
    2.0548   -0.0000    1.1744 N   0  0  0  0  0  3           0  0  0
    4.0966    0.0301   -0.0471 N   0  0  0  0  0  3           0  0  0
    1.2923    0.0187   -2.4413 N   0  0  0  0  0  3           0  0  0
    4.1124    0.0008    2.3034 N   0  0  0  0  0  3           0  0  0
    4.1257    0.0447   -2.4087 N   0  0  0  0  0  3           0  0  0
    1.3856    0.0000    0.0000 C   0  0  0  0  0  4           0  0  0
    3.4023    0.0098    1.1137 C   0  0  0  0  0  4           0  0  0
    3.4070    0.0478   -1.2143 C   0  0  0  0  0  4           0  0  0
    2.0144    0.0045   -1.2386 C   0  0  0  0  0  4           0  0  0
   -0.5860    0.0000    1.3018 C   0  0  0  0  0  4           0  0  0
    0.1324   -0.5451   -2.4451 C   0  0  0  0  0  4           0  0  0
   -0.7860    1.4458    1.7459 C   0  0  1  0  0  4           0  0  0
   -1.4163    1.5495    3.1462 C   0  0  0  0  0  4           0  0  0
   -1.6160    2.2371    0.7240 C   0  0  0  0  0  4           0  0  0
   -2.8970    1.1726    3.1627 C   0  0  0  0  0  4           0  0  0
   -3.0951    1.8557    0.7363 C   0  0  0  0  0  4           0  0  0
   -3.6932    1.9707    2.1348 C   0  0  0  0  0  4           0  0  0
  1  7  1  0     0  0
  1 11  1  0     0  0
  2  7  2  0     0  0
  2  8  1  0     0  0
  3  8  2  0     0  0
  3  9  1  0     0  0
  4 10  1  0     0  0
  4 12  2  0     0  0
  5  8  1  0     0  0
  6  9  1  0     0  0
  7 10  1  0     0  0
  9 10  2  0     0  0
 11 13  1  0     0  0
 13 14  1  0     0  0
 13 15  1  0     0  0
 14 16  1  0     0  0
 15 17  1  0     0  0
 16 18  1  0     0  0
 17 18  1  0     0  0
M  END
> <Compound >
10

> <standard_type>
pIC50

> <# Confs.>
25

> <canonical_smiles>
NC1=NC(N)=C(N=C)C(OCC2CCCCC2)=N1

> <standard_relation>
=

> <predicted_activity_value>
6.017457417697057

> <actual_activity_value>
5.657577319177793

> <Publication ID>
nan

> <standard_units>
nM

> hash
10067028176825304050

$$$$
12
XXILIB    08252103513D 0   0.00000     0.00000

 25 27  0     1  0            999 V2000
   -2.7769   -0.0048    2.2750 O   0  0  0  0  0  2           0  0  0
   -0.6705    0.0000    1.1754 N   0  0  0  0  0  3           0  0  0
   -0.6200    0.0012   -1.2057 N   0  0  0  0  0  3           0  0  0
    1.4051   -0.0000    0.0000 N   0  0  0  0  0  3           0  0  0
   -2.6269   -0.0209   -2.4687 N   0  0  0  0  0  3           0  0  0
    4.9257    2.1997    5.8002 N   0  0  0  0  0  3           0  0  0
   -2.0194   -0.0013    1.1133 C   0  0  0  0  0  4           0  0  0
    0.0000    0.0000    0.0000 C   0  0  0  0  0  4           0  0  0
   -1.9747    0.0163   -1.2390 C   0  0  0  0  0  4           0  0  0
    2.3181   -0.0000    1.0579 C   0  0  0  0  0  4           0  0  0
    4.2257    0.0431    3.1523 C   0  0  0  0  0  4           0  0  0
   -2.7226    0.0009   -0.0738 C   0  0  0  0  0  4           0  0  0
    2.0382   -0.5903    2.2986 C   0  0  0  0  0  4           0  0  0
    3.5682    0.6135    0.8856 C   0  0  0  0  0  4           0  0  0
    2.9788   -0.5666    3.3342 C   0  0  0  0  0  4           0  0  0
    4.5100    0.6376    1.9183 C   0  0  0  0  0  4           0  0  0
   -2.0309   -0.0068    3.4933 C   0  0  0  0  0  4           0  0  0
    5.0560    1.2674    5.1214 C   0  0  0  0  0  4           0  0  0
    5.2253    0.0885    4.2711 C   0  0  0  0  0  4           0  0  0
   -3.0071   -0.0105    4.6669 C   0  0  2  0  0  4           0  0  0
   -3.9184    1.2273    4.6453 C   0  0  0  0  0  4           0  0  0
   -2.2705   -0.1035    6.0129 C   0  0  0  0  0  4           0  0  0
   -4.8979    1.2221    5.8177 C   0  0  0  0  0  4           0  0  0
   -3.2481   -0.1103    7.1869 C   0  0  0  0  0  4           0  0  0
   -4.1717    1.1038    7.1545 C   0  0  0  0  0  4           0  0  0
  1  7  1  0     0  0
  1 17  1  0     0  0
  2  7  2  0     0  0
  2  8  1  0     0  0
  3  8  2  0     0  0
  3  9  1  0     0  0
  4  8  1  0     0  0
  4 10  1  0     0  0
  5  9  1  0     0  0
  6 18  3  0     0  0
  7 12  1  0     0  0
  9 12  2  0     0  0
 10 13  2  0     0  0
 10 14  1  0     0  0
 11 15  2  0     0  0
 11 16  1  0     0  0
 11 19  1  0     0  0
 13 15  1  0     0  0
 14 16  2  0     0  0
 17 20  1  0     0  0
 18 19  1  0     0  0
 20 21  1  0     0  0
 20 22  1  0     0  0
 21 23  1  0     0  0
 22 24  1  0     0  0
 23 25  1  0     0  0
 24 25  1  0     0  0
M  END
> <Compound >
13

> <standard_type>
pIC50

> <# Confs.>
25

> <canonical_smiles>
NC1=CC(OCC2CCCCC2)=NC(NC3=CC=C(CC#N)C=C3)=N1

> <standard_relation>
=

> <predicted_activity_value>
4.517134988077452

> <actual_activity_value>
4.619788758288394

> <Publication ID>
nan

> <standard_units>
nM

> hash
5259875804365495897

$$$$
12
XXILIB    08252103513D 0   0.00000     0.00000

 25 27  0     1  0            999 V2000
   -2.7769   -0.0048    2.2750 O   0  0  0  0  0  2           0  0  0
   -0.6705    0.0000    1.1754 N   0  0  0  0  0  3           0  0  0
   -0.6200    0.0012   -1.2057 N   0  0  0  0  0  3           0  0  0
    1.4051   -0.0000    0.0000 N   0  0  0  0  0  3           0  0  0
   -2.6269   -0.0209   -2.4687 N   0  0  0  0  0  3           0  0  0
    6.8621   -1.9621    4.2388 N   0  0  0  0  0  3           0  0  0
   -2.0194   -0.0013    1.1133 C   0  0  0  0  0  4           0  0  0
    0.0000    0.0000    0.0000 C   0  0  0  0  0  4           0  0  0
   -1.9747    0.0163   -1.2390 C   0  0  0  0  0  4           0  0  0
    2.3181   -0.0000    1.0579 C   0  0  0  0  0  4           0  0  0
    4.2257    0.0431    3.1523 C   0  0  0  0  0  4           0  0  0
   -2.7226    0.0009   -0.0738 C   0  0  0  0  0  4           0  0  0
    2.0382   -0.5903    2.2986 C   0  0  0  0  0  4           0  0  0
    3.5682    0.6135    0.8856 C   0  0  0  0  0  4           0  0  0
    2.9788   -0.5666    3.3342 C   0  0  0  0  0  4           0  0  0
    4.5100    0.6376    1.9183 C   0  0  0  0  0  4           0  0  0
   -2.0309   -0.0068    3.4933 C   0  0  0  0  0  4           0  0  0
    6.1360   -1.0568    4.2506 C   0  0  0  0  0  4           0  0  0
    5.2253    0.0885    4.2711 C   0  0  0  0  0  4           0  0  0
   -3.0071   -0.0105    4.6669 C   0  0  2  0  0  4           0  0  0
   -3.9184    1.2273    4.6453 C   0  0  0  0  0  4           0  0  0
   -2.2705   -0.1035    6.0129 C   0  0  0  0  0  4           0  0  0
   -4.8979    1.2221    5.8177 C   0  0  0  0  0  4           0  0  0
   -3.2481   -0.1103    7.1869 C   0  0  0  0  0  4           0  0  0
   -4.1717    1.1038    7.1545 C   0  0  0  0  0  4           0  0  0
  1  7  1  0     0  0
  1 17  1  0     0  0
  2  7  2  0     0  0
  2  8  1  0     0  0
  3  8  2  0     0  0
  3  9  1  0     0  0
  4  8  1  0     0  0
  4 10  1  0     0  0
  5  9  1  0     0  0
  6 18  3  0     0  0
  7 12  1  0     0  0
  9 12  2  0     0  0
 10 13  2  0     0  0
 10 14  1  0     0  0
 11 15  2  0     0  0
 11 16  1  0     0  0
 11 19  1  0     0  0
 13 15  1  0     0  0
 14 16  2  0     0  0
 17 20  1  0     0  0
 18 19  1  0     0  0
 20 21  1  0     0  0
 20 22  1  0     0  0
 21 23  1  0     0  0
 22 24  1  0     0  0
 23 25  1  0     0  0
 24 25  1  0     0  0
M  END
> <Compound >
13

> <standard_type>
pIC50

> <# Confs.>
25

> <canonical_smiles>
NC1=CC(OCC2CCCCC2)=NC(NC3=CC=C(CC#N)C=C3)=N1

> <standard_relation>
=

> <predicted_activity_value>
4.517134988077452

> <actual_activity_value>
4.619788758288394

> <Publication ID>
nan

> <standard_units>
nM

> hash
5259875804365495897

$$$$
12
XXILIB    08252103513D 0   0.00000     0.00000

 25 27  0     1  0            999 V2000
   -2.7769   -0.0048    2.2750 O   0  0  0  0  0  2           0  0  0
   -0.6705    0.0000    1.1754 N   0  0  0  0  0  3           0  0  0
   -0.6200    0.0012   -1.2057 N   0  0  0  0  0  3           0  0  0
    1.4051    0.0000   -0.0000 N   0  0  0  0  0  3           0  0  0
   -2.6269   -0.0209   -2.4687 N   0  0  0  0  0  3           0  0  0
    6.7934    2.0733    4.1885 N   0  0  0  0  0  3           0  0  0
   -2.0194   -0.0013    1.1133 C   0  0  0  0  0  4           0  0  0
    0.0000    0.0000    0.0000 C   0  0  0  0  0  4           0  0  0
   -1.9747    0.0163   -1.2390 C   0  0  0  0  0  4           0  0  0
    2.3181    0.0000    1.0579 C   0  0  0  0  0  4           0  0  0
    4.2252   -0.0442    3.1527 C   0  0  0  0  0  4           0  0  0
   -2.7226    0.0009   -0.0738 C   0  0  0  0  0  4           0  0  0
    2.0382    0.5903    2.2986 C   0  0  0  0  0  4           0  0  0
    3.5695   -0.6104    0.8844 C   0  0  0  0  0  4           0  0  0
    2.9809    0.5713    3.3324 C   0  0  0  0  0  4           0  0  0
    4.5126   -0.6316    1.9160 C   0  0  0  0  0  4           0  0  0
   -2.0309   -0.0068    3.4933 C   0  0  0  0  0  4           0  0  0
    6.1072    1.1377    4.2143 C   0  0  0  0  0  4           0  0  0
    5.2448   -0.0439    4.2543 C   0  0  0  0  0  4           0  0  0
   -3.0071   -0.0105    4.6669 C   0  0  2  0  0  4           0  0  0
   -3.9184    1.2273    4.6453 C   0  0  0  0  0  4           0  0  0
   -2.2705   -0.1035    6.0129 C   0  0  0  0  0  4           0  0  0
   -4.8979    1.2221    5.8177 C   0  0  0  0  0  4           0  0  0
   -3.2481   -0.1103    7.1869 C   0  0  0  0  0  4           0  0  0
   -4.1717    1.1038    7.1545 C   0  0  0  0  0  4           0  0  0
  1  7  1  0     0  0
  1 17  1  0     0  0
  2  7  2  0     0  0
  2  8  1  0     0  0
  3  8  2  0     0  0
  3  9  1  0     0  0
  4  8  1  0     0  0
  4 10  1  0     0  0
  5  9  1  0     0  0
  6 18  3  0     0  0
  7 12  1  0     0  0
  9 12  2  0     0  0
 10 13  2  0     0  0
 10 14  1  0     0  0
 11 15  2  0     0  0
 11 16  1  0     0  0
 11 19  1  0     0  0
 13 15  1  0     0  0
 14 16  2  0     0  0
 17 20  1  0     0  0
 18 19  1  0     0  0
 20 21  1  0     0  0
 20 22  1  0     0  0
 21 23  1  0     0  0
 22 24  1  0     0  0
 23 25  1  0     0  0
 24 25  1  0     0  0
M  END
> <Compound >
13

> <standard_type>
pIC50

> <# Confs.>
25

> <canonical_smiles>
NC1=CC(OCC2CCCCC2)=NC(NC3=CC=C(CC#N)C=C3)=N1

> <standard_relation>
=

> <predicted_activity_value>
4.517134988077452

> <actual_activity_value>
4.619788758288394

> <Publication ID>
nan

> <standard_units>
nM

> hash
5259875804365495897

$$$$
12
XXILIB    08252103513D 0   0.00000     0.00000

 25 27  0     1  0            999 V2000
   -2.7769   -0.0048    2.2750 O   0  0  0  0  0  2           0  0  0
   -0.6705    0.0000    1.1754 N   0  0  0  0  0  3           0  0  0
   -0.6200    0.0012   -1.2057 N   0  0  0  0  0  3           0  0  0
    1.4051   -0.0000    0.0000 N   0  0  0  0  0  3           0  0  0
   -2.6269   -0.0209   -2.4687 N   0  0  0  0  0  3           0  0  0
    4.9257    2.1997    5.8002 N   0  0  0  0  0  3           0  0  0
   -2.0194   -0.0013    1.1133 C   0  0  0  0  0  4           0  0  0
    0.0000    0.0000    0.0000 C   0  0  0  0  0  4           0  0  0
   -1.9747    0.0163   -1.2390 C   0  0  0  0  0  4           0  0  0
    2.3181   -0.0000    1.0579 C   0  0  0  0  0  4           0  0  0
    4.2257    0.0431    3.1523 C   0  0  0  0  0  4           0  0  0
   -2.7226    0.0009   -0.0738 C   0  0  0  0  0  4           0  0  0
    2.0382   -0.5903    2.2986 C   0  0  0  0  0  4           0  0  0
    3.5682    0.6135    0.8856 C   0  0  0  0  0  4           0  0  0
    2.9788   -0.5666    3.3342 C   0  0  0  0  0  4           0  0  0
    4.5100    0.6376    1.9183 C   0  0  0  0  0  4           0  0  0
   -2.0309   -0.0068    3.4933 C   0  0  0  0  0  4           0  0  0
    5.0560    1.2674    5.1214 C   0  0  0  0  0  4           0  0  0
    5.2253    0.0885    4.2711 C   0  0  0  0  0  4           0  0  0
   -3.0071   -0.0105    4.6669 C   0  0  2  0  0  4           0  0  0
   -2.2676   -0.0128    6.0146 C   0  0  0  0  0  4           0  0  0
   -3.9755   -1.2020    4.5911 C   0  0  0  0  0  4           0  0  0
   -3.2443   -0.0130    7.1893 C   0  0  0  0  0  4           0  0  0
   -4.9542   -1.2034    5.7642 C   0  0  0  0  0  4           0  0  0
   -4.2239   -1.1797    7.1038 C   0  0  0  0  0  4           0  0  0
  1  7  1  0     0  0
  1 17  1  0     0  0
  2  7  2  0     0  0
  2  8  1  0     0  0
  3  8  2  0     0  0
  3  9  1  0     0  0
  4  8  1  0     0  0
  4 10  1  0     0  0
  5  9  1  0     0  0
  6 18  3  0     0  0
  7 12  1  0     0  0
  9 12  2  0     0  0
 10 13  2  0     0  0
 10 14  1  0     0  0
 11 15  2  0     0  0
 11 16  1  0     0  0
 11 19  1  0     0  0
 13 15  1  0     0  0
 14 16  2  0     0  0
 17 20  1  0     0  0
 18 19  1  0     0  0
 20 21  1  0     0  0
 20 22  1  0     0  0
 21 23  1  0     0  0
 22 24  1  0     0  0
 23 25  1  0     0  0
 24 25  1  0     0  0
M  END
> <Compound >
13

> <standard_type>
pIC50

> <# Confs.>
25

> <canonical_smiles>
NC1=CC(OCC2CCCCC2)=NC(NC3=CC=C(CC#N)C=C3)=N1

> <standard_relation>
=

> <predicted_activity_value>
4.517134988077452

> <actual_activity_value>
4.619788758288394

> <Publication ID>
nan

> <standard_units>
nM

> hash
5259875804365495897

$$$$
12
XXILIB    08252103513D 0   0.00000     0.00000

 25 27  0     1  0            999 V2000
   -2.7769   -0.0048    2.2750 O   0  0  0  0  0  2           0  0  0
   -0.6705    0.0000    1.1754 N   0  0  0  0  0  3           0  0  0
   -0.6200    0.0012   -1.2057 N   0  0  0  0  0  3           0  0  0
    1.4051   -0.0000    0.0000 N   0  0  0  0  0  3           0  0  0
   -2.6269   -0.0209   -2.4687 N   0  0  0  0  0  3           0  0  0
    6.8621   -1.9621    4.2388 N   0  0  0  0  0  3           0  0  0
   -2.0194   -0.0013    1.1133 C   0  0  0  0  0  4           0  0  0
    0.0000    0.0000    0.0000 C   0  0  0  0  0  4           0  0  0
   -1.9747    0.0163   -1.2390 C   0  0  0  0  0  4           0  0  0
    2.3181   -0.0000    1.0579 C   0  0  0  0  0  4           0  0  0
    4.2257    0.0431    3.1523 C   0  0  0  0  0  4           0  0  0
   -2.7226    0.0009   -0.0738 C   0  0  0  0  0  4           0  0  0
    2.0382   -0.5903    2.2986 C   0  0  0  0  0  4           0  0  0
    3.5682    0.6135    0.8856 C   0  0  0  0  0  4           0  0  0
    2.9788   -0.5666    3.3342 C   0  0  0  0  0  4           0  0  0
    4.5100    0.6376    1.9183 C   0  0  0  0  0  4           0  0  0
   -2.0309   -0.0068    3.4933 C   0  0  0  0  0  4           0  0  0
    6.1360   -1.0568    4.2506 C   0  0  0  0  0  4           0  0  0
    5.2253    0.0885    4.2711 C   0  0  0  0  0  4           0  0  0
   -3.0071   -0.0105    4.6669 C   0  0  2  0  0  4           0  0  0
   -2.2676   -0.0128    6.0146 C   0  0  0  0  0  4           0  0  0
   -3.9755   -1.2020    4.5911 C   0  0  0  0  0  4           0  0  0
   -3.2443   -0.0130    7.1893 C   0  0  0  0  0  4           0  0  0
   -4.9542   -1.2034    5.7642 C   0  0  0  0  0  4           0  0  0
   -4.2239   -1.1797    7.1038 C   0  0  0  0  0  4           0  0  0
  1  7  1  0     0  0
  1 17  1  0     0  0
  2  7  2  0     0  0
  2  8  1  0     0  0
  3  8  2  0     0  0
  3  9  1  0     0  0
  4  8  1  0     0  0
  4 10  1  0     0  0
  5  9  1  0     0  0
  6 18  3  0     0  0
  7 12  1  0     0  0
  9 12  2  0     0  0
 10 13  2  0     0  0
 10 14  1  0     0  0
 11 15  2  0     0  0
 11 16  1  0     0  0
 11 19  1  0     0  0
 13 15  1  0     0  0
 14 16  2  0     0  0
 17 20  1  0     0  0
 18 19  1  0     0  0
 20 21  1  0     0  0
 20 22  1  0     0  0
 21 23  1  0     0  0
 22 24  1  0     0  0
 23 25  1  0     0  0
 24 25  1  0     0  0
M  END
> <Compound >
13

> <standard_type>
pIC50

> <# Confs.>
25

> <canonical_smiles>
NC1=CC(OCC2CCCCC2)=NC(NC3=CC=C(CC#N)C=C3)=N1

> <standard_relation>
=

> <predicted_activity_value>
4.517134988077452

> <actual_activity_value>
4.619788758288394

> <Publication ID>
nan

> <standard_units>
nM

> hash
5259875804365495897

$$$$
12
XXILIB    08252103513D 0   0.00000     0.00000

 25 27  0     1  0            999 V2000
   -2.7769   -0.0048    2.2750 O   0  0  0  0  0  2           0  0  0
   -0.6705    0.0000    1.1754 N   0  0  0  0  0  3           0  0  0
   -0.6200    0.0012   -1.2057 N   0  0  0  0  0  3           0  0  0
    1.4051    0.0000   -0.0000 N   0  0  0  0  0  3           0  0  0
   -2.6269   -0.0209   -2.4687 N   0  0  0  0  0  3           0  0  0
    6.7934    2.0733    4.1885 N   0  0  0  0  0  3           0  0  0
   -2.0194   -0.0013    1.1133 C   0  0  0  0  0  4           0  0  0
    0.0000    0.0000    0.0000 C   0  0  0  0  0  4           0  0  0
   -1.9747    0.0163   -1.2390 C   0  0  0  0  0  4           0  0  0
    2.3181    0.0000    1.0579 C   0  0  0  0  0  4           0  0  0
    4.2252   -0.0442    3.1527 C   0  0  0  0  0  4           0  0  0
   -2.7226    0.0009   -0.0738 C   0  0  0  0  0  4           0  0  0
    2.0382    0.5903    2.2986 C   0  0  0  0  0  4           0  0  0
    3.5695   -0.6104    0.8844 C   0  0  0  0  0  4           0  0  0
    2.9809    0.5713    3.3324 C   0  0  0  0  0  4           0  0  0
    4.5126   -0.6316    1.9160 C   0  0  0  0  0  4           0  0  0
   -2.0309   -0.0068    3.4933 C   0  0  0  0  0  4           0  0  0
    6.1072    1.1377    4.2143 C   0  0  0  0  0  4           0  0  0
    5.2448   -0.0439    4.2543 C   0  0  0  0  0  4           0  0  0
   -3.0071   -0.0105    4.6669 C   0  0  2  0  0  4           0  0  0
   -2.2676   -0.0128    6.0146 C   0  0  0  0  0  4           0  0  0
   -3.9755   -1.2020    4.5911 C   0  0  0  0  0  4           0  0  0
   -3.2443   -0.0130    7.1893 C   0  0  0  0  0  4           0  0  0
   -4.9542   -1.2034    5.7642 C   0  0  0  0  0  4           0  0  0
   -4.2239   -1.1797    7.1038 C   0  0  0  0  0  4           0  0  0
  1  7  1  0     0  0
  1 17  1  0     0  0
  2  7  2  0     0  0
  2  8  1  0     0  0
  3  8  2  0     0  0
  3  9  1  0     0  0
  4  8  1  0     0  0
  4 10  1  0     0  0
  5  9  1  0     0  0
  6 18  3  0     0  0
  7 12  1  0     0  0
  9 12  2  0     0  0
 10 13  2  0     0  0
 10 14  1  0     0  0
 11 15  2  0     0  0
 11 16  1  0     0  0
 11 19  1  0     0  0
 13 15  1  0     0  0
 14 16  2  0     0  0
 17 20  1  0     0  0
 18 19  1  0     0  0
 20 21  1  0     0  0
 20 22  1  0     0  0
 21 23  1  0     0  0
 22 24  1  0     0  0
 23 25  1  0     0  0
 24 25  1  0     0  0
M  END
> <Compound >
13

> <standard_type>
pIC50

> <# Confs.>
25

> <canonical_smiles>
NC1=CC(OCC2CCCCC2)=NC(NC3=CC=C(CC#N)C=C3)=N1

> <standard_relation>
=

> <predicted_activity_value>
4.517134988077452

> <actual_activity_value>
4.619788758288394

> <Publication ID>
nan

> <standard_units>
nM

> hash
5259875804365495897

$$$$
12
XXILIB    08252103513D 0   0.00000     0.00000

 25 27  0     1  0            999 V2000
   -2.7769   -0.0048    2.2750 O   0  0  0  0  0  2           0  0  0
   -0.6705    0.0000    1.1754 N   0  0  0  0  0  3           0  0  0
   -0.6200    0.0012   -1.2057 N   0  0  0  0  0  3           0  0  0
    1.4051   -0.0000    0.0000 N   0  0  0  0  0  3           0  0  0
   -2.6269   -0.0209   -2.4687 N   0  0  0  0  0  3           0  0  0
    4.9257    2.1997    5.8002 N   0  0  0  0  0  3           0  0  0
   -2.0194   -0.0013    1.1133 C   0  0  0  0  0  4           0  0  0
    0.0000    0.0000    0.0000 C   0  0  0  0  0  4           0  0  0
   -1.9747    0.0163   -1.2390 C   0  0  0  0  0  4           0  0  0
    2.3181   -0.0000    1.0579 C   0  0  0  0  0  4           0  0  0
    4.2257    0.0431    3.1523 C   0  0  0  0  0  4           0  0  0
   -2.7226    0.0009   -0.0738 C   0  0  0  0  0  4           0  0  0
    2.0382   -0.5903    2.2986 C   0  0  0  0  0  4           0  0  0
    3.5682    0.6135    0.8856 C   0  0  0  0  0  4           0  0  0
    2.9788   -0.5666    3.3342 C   0  0  0  0  0  4           0  0  0
    4.5100    0.6376    1.9183 C   0  0  0  0  0  4           0  0  0
   -2.0309   -0.0068    3.4933 C   0  0  0  0  0  4           0  0  0
    5.0560    1.2674    5.1214 C   0  0  0  0  0  4           0  0  0
    5.2253    0.0885    4.2711 C   0  0  0  0  0  4           0  0  0
   -3.0071   -0.0105    4.6669 C   0  0  2  0  0  4           0  0  0
   -3.9158   -1.2502    4.6396 C   0  0  0  0  0  4           0  0  0
   -3.8573    1.2698    4.6973 C   0  0  0  0  0  4           0  0  0
   -4.8905   -1.2560    5.8160 C   0  0  0  0  0  4           0  0  0
   -4.8320    1.2669    5.8738 C   0  0  0  0  0  4           0  0  0
   -5.7183    0.0249    5.8646 C   0  0  0  0  0  4           0  0  0
  1  7  1  0     0  0
  1 17  1  0     0  0
  2  7  2  0     0  0
  2  8  1  0     0  0
  3  8  2  0     0  0
  3  9  1  0     0  0
  4  8  1  0     0  0
  4 10  1  0     0  0
  5  9  1  0     0  0
  6 18  3  0     0  0
  7 12  1  0     0  0
  9 12  2  0     0  0
 10 13  2  0     0  0
 10 14  1  0     0  0
 11 15  2  0     0  0
 11 16  1  0     0  0
 11 19  1  0     0  0
 13 15  1  0     0  0
 14 16  2  0     0  0
 17 20  1  0     0  0
 18 19  1  0     0  0
 20 21  1  0     0  0
 20 22  1  0     0  0
 21 23  1  0     0  0
 22 24  1  0     0  0
 23 25  1  0     0  0
 24 25  1  0     0  0
M  END
> <Compound >
13

> <standard_type>
pIC50

> <# Confs.>
25

> <canonical_smiles>
NC1=CC(OCC2CCCCC2)=NC(NC3=CC=C(CC#N)C=C3)=N1

> <standard_relation>
=

> <predicted_activity_value>
4.517134988077452

> <actual_activity_value>
4.619788758288394

> <Publication ID>
nan

> <standard_units>
nM

> hash
5259875804365495897

$$$$
12
XXILIB    08252103513D 0   0.00000     0.00000

 25 27  0     1  0            999 V2000
   -2.7769   -0.0048    2.2750 O   0  0  0  0  0  2           0  0  0
   -0.6705    0.0000    1.1754 N   0  0  0  0  0  3           0  0  0
   -0.6200    0.0012   -1.2057 N   0  0  0  0  0  3           0  0  0
    1.4051   -0.0000    0.0000 N   0  0  0  0  0  3           0  0  0
   -2.6269   -0.0209   -2.4687 N   0  0  0  0  0  3           0  0  0
    6.8621   -1.9621    4.2388 N   0  0  0  0  0  3           0  0  0
   -2.0194   -0.0013    1.1133 C   0  0  0  0  0  4           0  0  0
    0.0000    0.0000    0.0000 C   0  0  0  0  0  4           0  0  0
   -1.9747    0.0163   -1.2390 C   0  0  0  0  0  4           0  0  0
    2.3181   -0.0000    1.0579 C   0  0  0  0  0  4           0  0  0
    4.2257    0.0431    3.1523 C   0  0  0  0  0  4           0  0  0
   -2.7226    0.0009   -0.0738 C   0  0  0  0  0  4           0  0  0
    2.0382   -0.5903    2.2986 C   0  0  0  0  0  4           0  0  0
    3.5682    0.6135    0.8856 C   0  0  0  0  0  4           0  0  0
    2.9788   -0.5666    3.3342 C   0  0  0  0  0  4           0  0  0
    4.5100    0.6376    1.9183 C   0  0  0  0  0  4           0  0  0
   -2.0309   -0.0068    3.4933 C   0  0  0  0  0  4           0  0  0
    6.1360   -1.0568    4.2506 C   0  0  0  0  0  4           0  0  0
    5.2253    0.0885    4.2711 C   0  0  0  0  0  4           0  0  0
   -3.0071   -0.0105    4.6669 C   0  0  2  0  0  4           0  0  0
   -3.9158   -1.2502    4.6396 C   0  0  0  0  0  4           0  0  0
   -3.8573    1.2698    4.6973 C   0  0  0  0  0  4           0  0  0
   -4.8905   -1.2560    5.8160 C   0  0  0  0  0  4           0  0  0
   -4.8320    1.2669    5.8738 C   0  0  0  0  0  4           0  0  0
   -5.7183    0.0249    5.8646 C   0  0  0  0  0  4           0  0  0
  1  7  1  0     0  0
  1 17  1  0     0  0
  2  7  2  0     0  0
  2  8  1  0     0  0
  3  8  2  0     0  0
  3  9  1  0     0  0
  4  8  1  0     0  0
  4 10  1  0     0  0
  5  9  1  0     0  0
  6 18  3  0     0  0
  7 12  1  0     0  0
  9 12  2  0     0  0
 10 13  2  0     0  0
 10 14  1  0     0  0
 11 15  2  0     0  0
 11 16  1  0     0  0
 11 19  1  0     0  0
 13 15  1  0     0  0
 14 16  2  0     0  0
 17 20  1  0     0  0
 18 19  1  0     0  0
 20 21  1  0     0  0
 20 22  1  0     0  0
 21 23  1  0     0  0
 22 24  1  0     0  0
 23 25  1  0     0  0
 24 25  1  0     0  0
M  END
> <Compound >
13

> <standard_type>
pIC50

> <# Confs.>
25

> <canonical_smiles>
NC1=CC(OCC2CCCCC2)=NC(NC3=CC=C(CC#N)C=C3)=N1

> <standard_relation>
=

> <predicted_activity_value>
4.517134988077452

> <actual_activity_value>
4.619788758288394

> <Publication ID>
nan

> <standard_units>
nM

> hash
5259875804365495897

$$$$
12
XXILIB    08252103513D 0   0.00000     0.00000

 25 27  0     1  0            999 V2000
   -2.7769   -0.0048    2.2750 O   0  0  0  0  0  2           0  0  0
   -0.6705    0.0000    1.1754 N   0  0  0  0  0  3           0  0  0
   -0.6200    0.0012   -1.2057 N   0  0  0  0  0  3           0  0  0
    1.4051    0.0000   -0.0000 N   0  0  0  0  0  3           0  0  0
   -2.6269   -0.0209   -2.4687 N   0  0  0  0  0  3           0  0  0
    5.0601   -2.1607    5.7938 N   0  0  0  0  0  3           0  0  0
   -2.0194   -0.0013    1.1133 C   0  0  0  0  0  4           0  0  0
    0.0000    0.0000    0.0000 C   0  0  0  0  0  4           0  0  0
   -1.9747    0.0163   -1.2390 C   0  0  0  0  0  4           0  0  0
    2.3181    0.0000    1.0579 C   0  0  0  0  0  4           0  0  0
    4.2252   -0.0442    3.1527 C   0  0  0  0  0  4           0  0  0
   -2.7226    0.0009   -0.0738 C   0  0  0  0  0  4           0  0  0
    2.0382    0.5903    2.2986 C   0  0  0  0  0  4           0  0  0
    3.5695   -0.6104    0.8844 C   0  0  0  0  0  4           0  0  0
    2.9809    0.5713    3.3324 C   0  0  0  0  0  4           0  0  0
    4.5126   -0.6316    1.9160 C   0  0  0  0  0  4           0  0  0
   -2.0309   -0.0068    3.4933 C   0  0  0  0  0  4           0  0  0
    5.1385   -1.2252    5.1114 C   0  0  0  0  0  4           0  0  0
    5.2448   -0.0439    4.2543 C   0  0  0  0  0  4           0  0  0
   -3.0071   -0.0105    4.6669 C   0  0  2  0  0  4           0  0  0
   -3.9184    1.2273    4.6453 C   0  0  0  0  0  4           0  0  0
   -2.2705   -0.1035    6.0129 C   0  0  0  0  0  4           0  0  0
   -4.8979    1.2221    5.8177 C   0  0  0  0  0  4           0  0  0
   -3.2481   -0.1103    7.1869 C   0  0  0  0  0  4           0  0  0
   -4.1717    1.1038    7.1545 C   0  0  0  0  0  4           0  0  0
  1  7  1  0     0  0
  1 17  1  0     0  0
  2  7  2  0     0  0
  2  8  1  0     0  0
  3  8  2  0     0  0
  3  9  1  0     0  0
  4  8  1  0     0  0
  4 10  1  0     0  0
  5  9  1  0     0  0
  6 18  3  0     0  0
  7 12  1  0     0  0
  9 12  2  0     0  0
 10 13  2  0     0  0
 10 14  1  0     0  0
 11 15  2  0     0  0
 11 16  1  0     0  0
 11 19  1  0     0  0
 13 15  1  0     0  0
 14 16  2  0     0  0
 17 20  1  0     0  0
 18 19  1  0     0  0
 20 21  1  0     0  0
 20 22  1  0     0  0
 21 23  1  0     0  0
 22 24  1  0     0  0
 23 25  1  0     0  0
 24 25  1  0     0  0
M  END
> <Compound >
13

> <standard_type>
pIC50

> <# Confs.>
25

> <canonical_smiles>
NC1=CC(OCC2CCCCC2)=NC(NC3=CC=C(CC#N)C=C3)=N1

> <standard_relation>
=

> <predicted_activity_value>
4.517134988077452

> <actual_activity_value>
4.619788758288394

> <Publication ID>
nan

> <standard_units>
nM

> hash
5259875804365495897

$$$$
12
XXILIB    08252103513D 0   0.00000     0.00000

 25 27  0     1  0            999 V2000
   -2.7769   -0.0048    2.2750 O   0  0  0  0  0  2           0  0  0
   -0.6705    0.0000    1.1754 N   0  0  0  0  0  3           0  0  0
   -0.6200    0.0012   -1.2057 N   0  0  0  0  0  3           0  0  0
    1.4051    0.0000   -0.0000 N   0  0  0  0  0  3           0  0  0
   -2.6269   -0.0209   -2.4687 N   0  0  0  0  0  3           0  0  0
    6.7934    2.0733    4.1885 N   0  0  0  0  0  3           0  0  0
   -2.0194   -0.0013    1.1133 C   0  0  0  0  0  4           0  0  0
    0.0000    0.0000    0.0000 C   0  0  0  0  0  4           0  0  0
   -1.9747    0.0163   -1.2390 C   0  0  0  0  0  4           0  0  0
    2.3181    0.0000    1.0579 C   0  0  0  0  0  4           0  0  0
    4.2252   -0.0442    3.1527 C   0  0  0  0  0  4           0  0  0
   -2.7226    0.0009   -0.0738 C   0  0  0  0  0  4           0  0  0
    2.0382    0.5903    2.2986 C   0  0  0  0  0  4           0  0  0
    3.5695   -0.6104    0.8844 C   0  0  0  0  0  4           0  0  0
    2.9809    0.5713    3.3324 C   0  0  0  0  0  4           0  0  0
    4.5126   -0.6316    1.9160 C   0  0  0  0  0  4           0  0  0
   -2.0309   -0.0068    3.4933 C   0  0  0  0  0  4           0  0  0
    6.1072    1.1377    4.2143 C   0  0  0  0  0  4           0  0  0
    5.2448   -0.0439    4.2543 C   0  0  0  0  0  4           0  0  0
   -3.0071   -0.0105    4.6669 C   0  0  2  0  0  4           0  0  0
   -3.9158   -1.2502    4.6396 C   0  0  0  0  0  4           0  0  0
   -3.8573    1.2698    4.6973 C   0  0  0  0  0  4           0  0  0
   -4.8905   -1.2560    5.8160 C   0  0  0  0  0  4           0  0  0
   -4.8320    1.2669    5.8738 C   0  0  0  0  0  4           0  0  0
   -5.7183    0.0249    5.8646 C   0  0  0  0  0  4           0  0  0
  1  7  1  0     0  0
  1 17  1  0     0  0
  2  7  2  0     0  0
  2  8  1  0     0  0
  3  8  2  0     0  0
  3  9  1  0     0  0
  4  8  1  0     0  0
  4 10  1  0     0  0
  5  9  1  0     0  0
  6 18  3  0     0  0
  7 12  1  0     0  0
  9 12  2  0     0  0
 10 13  2  0     0  0
 10 14  1  0     0  0
 11 15  2  0     0  0
 11 16  1  0     0  0
 11 19  1  0     0  0
 13 15  1  0     0  0
 14 16  2  0     0  0
 17 20  1  0     0  0
 18 19  1  0     0  0
 20 21  1  0     0  0
 20 22  1  0     0  0
 21 23  1  0     0  0
 22 24  1  0     0  0
 23 25  1  0     0  0
 24 25  1  0     0  0
M  END
> <Compound >
13

> <standard_type>
pIC50

> <# Confs.>
25

> <canonical_smiles>
NC1=CC(OCC2CCCCC2)=NC(NC3=CC=C(CC#N)C=C3)=N1

> <standard_relation>
=

> <predicted_activity_value>
4.517134988077452

> <actual_activity_value>
4.619788758288394

> <Publication ID>
nan

> <standard_units>
nM

> hash
5259875804365495897

$$$$
12
XXILIB    08252103513D 0   0.00000     0.00000

 25 27  0     1  0            999 V2000
   -2.7769   -0.0048    2.2750 O   0  0  0  0  0  2           0  0  0
   -0.6705    0.0000    1.1754 N   0  0  0  0  0  3           0  0  0
   -0.6200    0.0012   -1.2057 N   0  0  0  0  0  3           0  0  0
    1.4051    0.0000   -0.0000 N   0  0  0  0  0  3           0  0  0
   -2.6269   -0.0209   -2.4687 N   0  0  0  0  0  3           0  0  0
    5.0601   -2.1607    5.7938 N   0  0  0  0  0  3           0  0  0
   -2.0194   -0.0013    1.1133 C   0  0  0  0  0  4           0  0  0
    0.0000    0.0000    0.0000 C   0  0  0  0  0  4           0  0  0
   -1.9747    0.0163   -1.2390 C   0  0  0  0  0  4           0  0  0
    2.3181    0.0000    1.0579 C   0  0  0  0  0  4           0  0  0
    4.2252   -0.0442    3.1527 C   0  0  0  0  0  4           0  0  0
   -2.7226    0.0009   -0.0738 C   0  0  0  0  0  4           0  0  0
    2.0382    0.5903    2.2986 C   0  0  0  0  0  4           0  0  0
    3.5695   -0.6104    0.8844 C   0  0  0  0  0  4           0  0  0
    2.9809    0.5713    3.3324 C   0  0  0  0  0  4           0  0  0
    4.5126   -0.6316    1.9160 C   0  0  0  0  0  4           0  0  0
   -2.0309   -0.0068    3.4933 C   0  0  0  0  0  4           0  0  0
    5.1385   -1.2252    5.1114 C   0  0  0  0  0  4           0  0  0
    5.2448   -0.0439    4.2543 C   0  0  0  0  0  4           0  0  0
   -3.0071   -0.0105    4.6669 C   0  0  2  0  0  4           0  0  0
   -2.2676   -0.0128    6.0146 C   0  0  0  0  0  4           0  0  0
   -3.9755   -1.2020    4.5911 C   0  0  0  0  0  4           0  0  0
   -3.2443   -0.0130    7.1893 C   0  0  0  0  0  4           0  0  0
   -4.9542   -1.2034    5.7642 C   0  0  0  0  0  4           0  0  0
   -4.2239   -1.1797    7.1038 C   0  0  0  0  0  4           0  0  0
  1  7  1  0     0  0
  1 17  1  0     0  0
  2  7  2  0     0  0
  2  8  1  0     0  0
  3  8  2  0     0  0
  3  9  1  0     0  0
  4  8  1  0     0  0
  4 10  1  0     0  0
  5  9  1  0     0  0
  6 18  3  0     0  0
  7 12  1  0     0  0
  9 12  2  0     0  0
 10 13  2  0     0  0
 10 14  1  0     0  0
 11 15  2  0     0  0
 11 16  1  0     0  0
 11 19  1  0     0  0
 13 15  1  0     0  0
 14 16  2  0     0  0
 17 20  1  0     0  0
 18 19  1  0     0  0
 20 21  1  0     0  0
 20 22  1  0     0  0
 21 23  1  0     0  0
 22 24  1  0     0  0
 23 25  1  0     0  0
 24 25  1  0     0  0
M  END
> <Compound >
13

> <standard_type>
pIC50

> <# Confs.>
25

> <canonical_smiles>
NC1=CC(OCC2CCCCC2)=NC(NC3=CC=C(CC#N)C=C3)=N1

> <standard_relation>
=

> <predicted_activity_value>
4.517134988077452

> <actual_activity_value>
4.619788758288394

> <Publication ID>
nan

> <standard_units>
nM

> hash
5259875804365495897

$$$$
12
XXILIB    08252103513D 0   0.00000     0.00000

 25 27  0     1  0            999 V2000
   -2.7769   -0.0048    2.2750 O   0  0  0  0  0  2           0  0  0
   -0.6705    0.0000    1.1754 N   0  0  0  0  0  3           0  0  0
   -0.6200    0.0012   -1.2057 N   0  0  0  0  0  3           0  0  0
    1.4051    0.0000   -0.0000 N   0  0  0  0  0  3           0  0  0
   -2.6269   -0.0209   -2.4687 N   0  0  0  0  0  3           0  0  0
    5.0601   -2.1607    5.7938 N   0  0  0  0  0  3           0  0  0
   -2.0194   -0.0013    1.1133 C   0  0  0  0  0  4           0  0  0
    0.0000    0.0000    0.0000 C   0  0  0  0  0  4           0  0  0
   -1.9747    0.0163   -1.2390 C   0  0  0  0  0  4           0  0  0
    2.3181    0.0000    1.0579 C   0  0  0  0  0  4           0  0  0
    4.2252   -0.0442    3.1527 C   0  0  0  0  0  4           0  0  0
   -2.7226    0.0009   -0.0738 C   0  0  0  0  0  4           0  0  0
    2.0382    0.5903    2.2986 C   0  0  0  0  0  4           0  0  0
    3.5695   -0.6104    0.8844 C   0  0  0  0  0  4           0  0  0
    2.9809    0.5713    3.3324 C   0  0  0  0  0  4           0  0  0
    4.5126   -0.6316    1.9160 C   0  0  0  0  0  4           0  0  0
   -2.0309   -0.0068    3.4933 C   0  0  0  0  0  4           0  0  0
    5.1385   -1.2252    5.1114 C   0  0  0  0  0  4           0  0  0
    5.2448   -0.0439    4.2543 C   0  0  0  0  0  4           0  0  0
   -3.0071   -0.0105    4.6669 C   0  0  2  0  0  4           0  0  0
   -3.9158   -1.2502    4.6396 C   0  0  0  0  0  4           0  0  0
   -3.8573    1.2698    4.6973 C   0  0  0  0  0  4           0  0  0
   -4.8905   -1.2560    5.8160 C   0  0  0  0  0  4           0  0  0
   -4.8320    1.2669    5.8738 C   0  0  0  0  0  4           0  0  0
   -5.7183    0.0249    5.8646 C   0  0  0  0  0  4           0  0  0
  1  7  1  0     0  0
  1 17  1  0     0  0
  2  7  2  0     0  0
  2  8  1  0     0  0
  3  8  2  0     0  0
  3  9  1  0     0  0
  4  8  1  0     0  0
  4 10  1  0     0  0
  5  9  1  0     0  0
  6 18  3  0     0  0
  7 12  1  0     0  0
  9 12  2  0     0  0
 10 13  2  0     0  0
 10 14  1  0     0  0
 11 15  2  0     0  0
 11 16  1  0     0  0
 11 19  1  0     0  0
 13 15  1  0     0  0
 14 16  2  0     0  0
 17 20  1  0     0  0
 18 19  1  0     0  0
 20 21  1  0     0  0
 20 22  1  0     0  0
 21 23  1  0     0  0
 22 24  1  0     0  0
 23 25  1  0     0  0
 24 25  1  0     0  0
M  END
> <Compound >
13

> <standard_type>
pIC50

> <# Confs.>
25

> <canonical_smiles>
NC1=CC(OCC2CCCCC2)=NC(NC3=CC=C(CC#N)C=C3)=N1

> <standard_relation>
=

> <predicted_activity_value>
4.517134988077452

> <actual_activity_value>
4.619788758288394

> <Publication ID>
nan

> <standard_units>
nM

> hash
5259875804365495897

$$$$
12
XXILIB    08252103513D 0   0.00000     0.00000

 25 27  0     1  0            999 V2000
   -2.7769   -0.0048    2.2750 O   0  0  0  0  0  2           0  0  0
   -0.6705    0.0000    1.1754 N   0  0  0  0  0  3           0  0  0
   -0.6200    0.0012   -1.2057 N   0  0  0  0  0  3           0  0  0
    1.4051   -0.0000    0.0000 N   0  0  0  0  0  3           0  0  0
   -2.6269   -0.0209   -2.4687 N   0  0  0  0  0  3           0  0  0
    4.9257    2.1997    5.8002 N   0  0  0  0  0  3           0  0  0
   -2.0194   -0.0013    1.1133 C   0  0  0  0  0  4           0  0  0
    0.0000    0.0000    0.0000 C   0  0  0  0  0  4           0  0  0
   -1.9747    0.0163   -1.2390 C   0  0  0  0  0  4           0  0  0
    2.3181   -0.0000    1.0579 C   0  0  0  0  0  4           0  0  0
    4.2257    0.0431    3.1523 C   0  0  0  0  0  4           0  0  0
   -2.7226    0.0009   -0.0738 C   0  0  0  0  0  4           0  0  0
    2.0382   -0.5903    2.2986 C   0  0  0  0  0  4           0  0  0
    3.5682    0.6135    0.8856 C   0  0  0  0  0  4           0  0  0
    2.9788   -0.5666    3.3342 C   0  0  0  0  0  4           0  0  0
    4.5100    0.6376    1.9183 C   0  0  0  0  0  4           0  0  0
   -2.0309   -0.0068    3.4933 C   0  0  0  0  0  4           0  0  0
    5.0560    1.2674    5.1214 C   0  0  0  0  0  4           0  0  0
    5.2253    0.0885    4.2711 C   0  0  0  0  0  4           0  0  0
   -3.0071   -0.0105    4.6669 C   0  0  2  0  0  4           0  0  0
   -2.2667   -0.0128    6.0127 C   0  0  0  0  0  4           0  0  0
   -4.0062    1.1587    4.6049 C   0  0  0  0  0  4           0  0  0
   -1.6230    1.3335    6.3402 C   0  0  0  0  0  4           0  0  0
   -3.3672    2.5067    4.9351 C   0  0  0  0  0  4           0  0  0
   -2.6370    2.4714    6.2741 C   0  0  0  0  0  4           0  0  0
  1  7  1  0     0  0
  1 17  1  0     0  0
  2  7  2  0     0  0
  2  8  1  0     0  0
  3  8  2  0     0  0
  3  9  1  0     0  0
  4  8  1  0     0  0
  4 10  1  0     0  0
  5  9  1  0     0  0
  6 18  3  0     0  0
  7 12  1  0     0  0
  9 12  2  0     0  0
 10 13  2  0     0  0
 10 14  1  0     0  0
 11 15  2  0     0  0
 11 16  1  0     0  0
 11 19  1  0     0  0
 13 15  1  0     0  0
 14 16  2  0     0  0
 17 20  1  0     0  0
 18 19  1  0     0  0
 20 21  1  0     0  0
 20 22  1  0     0  0
 21 23  1  0     0  0
 22 24  1  0     0  0
 23 25  1  0     0  0
 24 25  1  0     0  0
M  END
> <Compound >
13

> <standard_type>
pIC50

> <# Confs.>
25

> <canonical_smiles>
NC1=CC(OCC2CCCCC2)=NC(NC3=CC=C(CC#N)C=C3)=N1

> <standard_relation>
=

> <predicted_activity_value>
4.517134988077452

> <actual_activity_value>
4.619788758288394

> <Publication ID>
nan

> <standard_units>
nM

> hash
5259875804365495897

$$$$
12
XXILIB    08252103513D 0   0.00000     0.00000

 25 27  0     1  0            999 V2000
   -2.7769   -0.0048    2.2750 O   0  0  0  0  0  2           0  0  0
   -0.6705    0.0000    1.1754 N   0  0  0  0  0  3           0  0  0
   -0.6200    0.0012   -1.2057 N   0  0  0  0  0  3           0  0  0
    1.4051    0.0000   -0.0000 N   0  0  0  0  0  3           0  0  0
   -2.6269   -0.0209   -2.4687 N   0  0  0  0  0  3           0  0  0
    6.7934    2.0733    4.1885 N   0  0  0  0  0  3           0  0  0
   -2.0194   -0.0013    1.1133 C   0  0  0  0  0  4           0  0  0
    0.0000    0.0000    0.0000 C   0  0  0  0  0  4           0  0  0
   -1.9747    0.0163   -1.2390 C   0  0  0  0  0  4           0  0  0
    2.3181    0.0000    1.0579 C   0  0  0  0  0  4           0  0  0
    4.2252   -0.0442    3.1527 C   0  0  0  0  0  4           0  0  0
   -2.7226    0.0009   -0.0738 C   0  0  0  0  0  4           0  0  0
    2.0382    0.5903    2.2986 C   0  0  0  0  0  4           0  0  0
    3.5695   -0.6104    0.8844 C   0  0  0  0  0  4           0  0  0
    2.9809    0.5713    3.3324 C   0  0  0  0  0  4           0  0  0
    4.5126   -0.6316    1.9160 C   0  0  0  0  0  4           0  0  0
   -2.0309   -0.0068    3.4933 C   0  0  0  0  0  4           0  0  0
    6.1072    1.1377    4.2143 C   0  0  0  0  0  4           0  0  0
    5.2448   -0.0439    4.2543 C   0  0  0  0  0  4           0  0  0
   -3.0071   -0.0105    4.6669 C   0  0  2  0  0  4           0  0  0
   -2.2667   -0.0128    6.0127 C   0  0  0  0  0  4           0  0  0
   -4.0062    1.1587    4.6049 C   0  0  0  0  0  4           0  0  0
   -1.6230    1.3335    6.3402 C   0  0  0  0  0  4           0  0  0
   -3.3672    2.5067    4.9351 C   0  0  0  0  0  4           0  0  0
   -2.6370    2.4714    6.2741 C   0  0  0  0  0  4           0  0  0
  1  7  1  0     0  0
  1 17  1  0     0  0
  2  7  2  0     0  0
  2  8  1  0     0  0
  3  8  2  0     0  0
  3  9  1  0     0  0
  4  8  1  0     0  0
  4 10  1  0     0  0
  5  9  1  0     0  0
  6 18  3  0     0  0
  7 12  1  0     0  0
  9 12  2  0     0  0
 10 13  2  0     0  0
 10 14  1  0     0  0
 11 15  2  0     0  0
 11 16  1  0     0  0
 11 19  1  0     0  0
 13 15  1  0     0  0
 14 16  2  0     0  0
 17 20  1  0     0  0
 18 19  1  0     0  0
 20 21  1  0     0  0
 20 22  1  0     0  0
 21 23  1  0     0  0
 22 24  1  0     0  0
 23 25  1  0     0  0
 24 25  1  0     0  0
M  END
> <Compound >
13

> <standard_type>
pIC50

> <# Confs.>
25

> <canonical_smiles>
NC1=CC(OCC2CCCCC2)=NC(NC3=CC=C(CC#N)C=C3)=N1

> <standard_relation>
=

> <predicted_activity_value>
4.517134988077452

> <actual_activity_value>
4.619788758288394

> <Publication ID>
nan

> <standard_units>
nM

> hash
5259875804365495897

$$$$
12
XXILIB    08252103513D 0   0.00000     0.00000

 25 27  0     1  0            999 V2000
   -2.7769   -0.0048    2.2750 O   0  0  0  0  0  2           0  0  0
   -0.6705    0.0000    1.1754 N   0  0  0  0  0  3           0  0  0
   -0.6200    0.0012   -1.2057 N   0  0  0  0  0  3           0  0  0
    1.4051   -0.0000    0.0000 N   0  0  0  0  0  3           0  0  0
   -2.6269   -0.0209   -2.4687 N   0  0  0  0  0  3           0  0  0
    4.9257    2.1997    5.8002 N   0  0  0  0  0  3           0  0  0
   -2.0194   -0.0013    1.1133 C   0  0  0  0  0  4           0  0  0
    0.0000    0.0000    0.0000 C   0  0  0  0  0  4           0  0  0
   -1.9747    0.0163   -1.2390 C   0  0  0  0  0  4           0  0  0
    2.3181   -0.0000    1.0579 C   0  0  0  0  0  4           0  0  0
    4.2257    0.0431    3.1523 C   0  0  0  0  0  4           0  0  0
   -2.7226    0.0009   -0.0738 C   0  0  0  0  0  4           0  0  0
    2.0382   -0.5903    2.2986 C   0  0  0  0  0  4           0  0  0
    3.5682    0.6135    0.8856 C   0  0  0  0  0  4           0  0  0
    2.9788   -0.5666    3.3342 C   0  0  0  0  0  4           0  0  0
    4.5100    0.6376    1.9183 C   0  0  0  0  0  4           0  0  0
   -2.0309   -0.0068    3.4933 C   0  0  0  0  0  4           0  0  0
    5.0560    1.2674    5.1214 C   0  0  0  0  0  4           0  0  0
    5.2253    0.0885    4.2711 C   0  0  0  0  0  4           0  0  0
   -3.0071   -0.0105    4.6669 C   0  0  2  0  0  4           0  0  0
   -3.9143   -1.2498    4.6382 C   0  0  0  0  0  4           0  0  0
   -2.2937    0.1022    6.0261 C   0  0  0  0  0  4           0  0  0
   -3.1826   -2.5322    5.0306 C   0  0  0  0  0  4           0  0  0
   -1.5633   -1.1795    6.4239 C   0  0  0  0  0  4           0  0  0
   -2.4887   -2.3916    6.3819 C   0  0  0  0  0  4           0  0  0
  1  7  1  0     0  0
  1 17  1  0     0  0
  2  7  2  0     0  0
  2  8  1  0     0  0
  3  8  2  0     0  0
  3  9  1  0     0  0
  4  8  1  0     0  0
  4 10  1  0     0  0
  5  9  1  0     0  0
  6 18  3  0     0  0
  7 12  1  0     0  0
  9 12  2  0     0  0
 10 13  2  0     0  0
 10 14  1  0     0  0
 11 15  2  0     0  0
 11 16  1  0     0  0
 11 19  1  0     0  0
 13 15  1  0     0  0
 14 16  2  0     0  0
 17 20  1  0     0  0
 18 19  1  0     0  0
 20 21  1  0     0  0
 20 22  1  0     0  0
 21 23  1  0     0  0
 22 24  1  0     0  0
 23 25  1  0     0  0
 24 25  1  0     0  0
M  END
> <Compound >
13

> <standard_type>
pIC50

> <# Confs.>
25

> <canonical_smiles>
NC1=CC(OCC2CCCCC2)=NC(NC3=CC=C(CC#N)C=C3)=N1

> <standard_relation>
=

> <predicted_activity_value>
4.517134988077452

> <actual_activity_value>
4.619788758288394

> <Publication ID>
nan

> <standard_units>
nM

> hash
5259875804365495897

$$$$
12
XXILIB    08252103513D 0   0.00000     0.00000

 25 27  0     1  0            999 V2000
   -2.7769   -0.0048    2.2750 O   0  0  0  0  0  2           0  0  0
   -0.6705    0.0000    1.1754 N   0  0  0  0  0  3           0  0  0
   -0.6200    0.0012   -1.2057 N   0  0  0  0  0  3           0  0  0
    1.4051   -0.0000    0.0000 N   0  0  0  0  0  3           0  0  0
   -2.6269   -0.0209   -2.4687 N   0  0  0  0  0  3           0  0  0
    6.8621   -1.9621    4.2388 N   0  0  0  0  0  3           0  0  0
   -2.0194   -0.0013    1.1133 C   0  0  0  0  0  4           0  0  0
    0.0000    0.0000    0.0000 C   0  0  0  0  0  4           0  0  0
   -1.9747    0.0163   -1.2390 C   0  0  0  0  0  4           0  0  0
    2.3181   -0.0000    1.0579 C   0  0  0  0  0  4           0  0  0
    4.2257    0.0431    3.1523 C   0  0  0  0  0  4           0  0  0
   -2.7226    0.0009   -0.0738 C   0  0  0  0  0  4           0  0  0
    2.0382   -0.5903    2.2986 C   0  0  0  0  0  4           0  0  0
    3.5682    0.6135    0.8856 C   0  0  0  0  0  4           0  0  0
    2.9788   -0.5666    3.3342 C   0  0  0  0  0  4           0  0  0
    4.5100    0.6376    1.9183 C   0  0  0  0  0  4           0  0  0
   -2.0309   -0.0068    3.4933 C   0  0  0  0  0  4           0  0  0
    6.1360   -1.0568    4.2506 C   0  0  0  0  0  4           0  0  0
    5.2253    0.0885    4.2711 C   0  0  0  0  0  4           0  0  0
   -3.0071   -0.0105    4.6669 C   0  0  2  0  0  4           0  0  0
   -2.2667   -0.0128    6.0127 C   0  0  0  0  0  4           0  0  0
   -4.0062    1.1587    4.6049 C   0  0  0  0  0  4           0  0  0
   -1.6230    1.3335    6.3402 C   0  0  0  0  0  4           0  0  0
   -3.3672    2.5067    4.9351 C   0  0  0  0  0  4           0  0  0
   -2.6370    2.4714    6.2741 C   0  0  0  0  0  4           0  0  0
  1  7  1  0     0  0
  1 17  1  0     0  0
  2  7  2  0     0  0
  2  8  1  0     0  0
  3  8  2  0     0  0
  3  9  1  0     0  0
  4  8  1  0     0  0
  4 10  1  0     0  0
  5  9  1  0     0  0
  6 18  3  0     0  0
  7 12  1  0     0  0
  9 12  2  0     0  0
 10 13  2  0     0  0
 10 14  1  0     0  0
 11 15  2  0     0  0
 11 16  1  0     0  0
 11 19  1  0     0  0
 13 15  1  0     0  0
 14 16  2  0     0  0
 17 20  1  0     0  0
 18 19  1  0     0  0
 20 21  1  0     0  0
 20 22  1  0     0  0
 21 23  1  0     0  0
 22 24  1  0     0  0
 23 25  1  0     0  0
 24 25  1  0     0  0
M  END
> <Compound >
13

> <standard_type>
pIC50

> <# Confs.>
25

> <canonical_smiles>
NC1=CC(OCC2CCCCC2)=NC(NC3=CC=C(CC#N)C=C3)=N1

> <standard_relation>
=

> <predicted_activity_value>
4.517134988077452

> <actual_activity_value>
4.619788758288394

> <Publication ID>
nan

> <standard_units>
nM

> hash
5259875804365495897

$$$$
12
XXILIB    08252103513D 0   0.00000     0.00000

 25 27  0     1  0            999 V2000
   -2.7769   -0.0048    2.2750 O   0  0  0  0  0  2           0  0  0
   -0.6705    0.0000    1.1754 N   0  0  0  0  0  3           0  0  0
   -0.6200    0.0012   -1.2057 N   0  0  0  0  0  3           0  0  0
    1.4051   -0.0000    0.0000 N   0  0  0  0  0  3           0  0  0
   -2.6269   -0.0209   -2.4687 N   0  0  0  0  0  3           0  0  0
    6.8621   -1.9621    4.2388 N   0  0  0  0  0  3           0  0  0
   -2.0194   -0.0013    1.1133 C   0  0  0  0  0  4           0  0  0
    0.0000    0.0000    0.0000 C   0  0  0  0  0  4           0  0  0
   -1.9747    0.0163   -1.2390 C   0  0  0  0  0  4           0  0  0
    2.3181   -0.0000    1.0579 C   0  0  0  0  0  4           0  0  0
    4.2257    0.0431    3.1523 C   0  0  0  0  0  4           0  0  0
   -2.7226    0.0009   -0.0738 C   0  0  0  0  0  4           0  0  0
    2.0382   -0.5903    2.2986 C   0  0  0  0  0  4           0  0  0
    3.5682    0.6135    0.8856 C   0  0  0  0  0  4           0  0  0
    2.9788   -0.5666    3.3342 C   0  0  0  0  0  4           0  0  0
    4.5100    0.6376    1.9183 C   0  0  0  0  0  4           0  0  0
   -2.0309   -0.0068    3.4933 C   0  0  0  0  0  4           0  0  0
    6.1360   -1.0568    4.2506 C   0  0  0  0  0  4           0  0  0
    5.2253    0.0885    4.2711 C   0  0  0  0  0  4           0  0  0
   -3.0071   -0.0105    4.6669 C   0  0  2  0  0  4           0  0  0
   -3.9143   -1.2498    4.6382 C   0  0  0  0  0  4           0  0  0
   -2.2937    0.1022    6.0261 C   0  0  0  0  0  4           0  0  0
   -3.1826   -2.5322    5.0306 C   0  0  0  0  0  4           0  0  0
   -1.5633   -1.1795    6.4239 C   0  0  0  0  0  4           0  0  0
   -2.4887   -2.3916    6.3819 C   0  0  0  0  0  4           0  0  0
  1  7  1  0     0  0
  1 17  1  0     0  0
  2  7  2  0     0  0
  2  8  1  0     0  0
  3  8  2  0     0  0
  3  9  1  0     0  0
  4  8  1  0     0  0
  4 10  1  0     0  0
  5  9  1  0     0  0
  6 18  3  0     0  0
  7 12  1  0     0  0
  9 12  2  0     0  0
 10 13  2  0     0  0
 10 14  1  0     0  0
 11 15  2  0     0  0
 11 16  1  0     0  0
 11 19  1  0     0  0
 13 15  1  0     0  0
 14 16  2  0     0  0
 17 20  1  0     0  0
 18 19  1  0     0  0
 20 21  1  0     0  0
 20 22  1  0     0  0
 21 23  1  0     0  0
 22 24  1  0     0  0
 23 25  1  0     0  0
 24 25  1  0     0  0
M  END
> <Compound >
13

> <standard_type>
pIC50

> <# Confs.>
25

> <canonical_smiles>
NC1=CC(OCC2CCCCC2)=NC(NC3=CC=C(CC#N)C=C3)=N1

> <standard_relation>
=

> <predicted_activity_value>
4.517134988077452

> <actual_activity_value>
4.619788758288394

> <Publication ID>
nan

> <standard_units>
nM

> hash
5259875804365495897

$$$$
12
XXILIB    08252103513D 0   0.00000     0.00000

 25 27  0     1  0            999 V2000
   -2.7769   -0.0048    2.2750 O   0  0  0  0  0  2           0  0  0
   -0.6705    0.0000    1.1754 N   0  0  0  0  0  3           0  0  0
   -0.6200    0.0012   -1.2057 N   0  0  0  0  0  3           0  0  0
    1.4051    0.0000   -0.0000 N   0  0  0  0  0  3           0  0  0
   -2.6269   -0.0209   -2.4687 N   0  0  0  0  0  3           0  0  0
    6.7934    2.0733    4.1885 N   0  0  0  0  0  3           0  0  0
   -2.0194   -0.0013    1.1133 C   0  0  0  0  0  4           0  0  0
    0.0000    0.0000    0.0000 C   0  0  0  0  0  4           0  0  0
   -1.9747    0.0163   -1.2390 C   0  0  0  0  0  4           0  0  0
    2.3181    0.0000    1.0579 C   0  0  0  0  0  4           0  0  0
    4.2252   -0.0442    3.1527 C   0  0  0  0  0  4           0  0  0
   -2.7226    0.0009   -0.0738 C   0  0  0  0  0  4           0  0  0
    2.0382    0.5903    2.2986 C   0  0  0  0  0  4           0  0  0
    3.5695   -0.6104    0.8844 C   0  0  0  0  0  4           0  0  0
    2.9809    0.5713    3.3324 C   0  0  0  0  0  4           0  0  0
    4.5126   -0.6316    1.9160 C   0  0  0  0  0  4           0  0  0
   -2.0309   -0.0068    3.4933 C   0  0  0  0  0  4           0  0  0
    6.1072    1.1377    4.2143 C   0  0  0  0  0  4           0  0  0
    5.2448   -0.0439    4.2543 C   0  0  0  0  0  4           0  0  0
   -3.0071   -0.0105    4.6669 C   0  0  2  0  0  4           0  0  0
   -3.9143   -1.2498    4.6382 C   0  0  0  0  0  4           0  0  0
   -2.2937    0.1022    6.0261 C   0  0  0  0  0  4           0  0  0
   -3.1826   -2.5322    5.0306 C   0  0  0  0  0  4           0  0  0
   -1.5633   -1.1795    6.4239 C   0  0  0  0  0  4           0  0  0
   -2.4887   -2.3916    6.3819 C   0  0  0  0  0  4           0  0  0
  1  7  1  0     0  0
  1 17  1  0     0  0
  2  7  2  0     0  0
  2  8  1  0     0  0
  3  8  2  0     0  0
  3  9  1  0     0  0
  4  8  1  0     0  0
  4 10  1  0     0  0
  5  9  1  0     0  0
  6 18  3  0     0  0
  7 12  1  0     0  0
  9 12  2  0     0  0
 10 13  2  0     0  0
 10 14  1  0     0  0
 11 15  2  0     0  0
 11 16  1  0     0  0
 11 19  1  0     0  0
 13 15  1  0     0  0
 14 16  2  0     0  0
 17 20  1  0     0  0
 18 19  1  0     0  0
 20 21  1  0     0  0
 20 22  1  0     0  0
 21 23  1  0     0  0
 22 24  1  0     0  0
 23 25  1  0     0  0
 24 25  1  0     0  0
M  END
> <Compound >
13

> <standard_type>
pIC50

> <# Confs.>
25

> <canonical_smiles>
NC1=CC(OCC2CCCCC2)=NC(NC3=CC=C(CC#N)C=C3)=N1

> <standard_relation>
=

> <predicted_activity_value>
4.517134988077452

> <actual_activity_value>
4.619788758288394

> <Publication ID>
nan

> <standard_units>
nM

> hash
5259875804365495897

$$$$
12
XXILIB    08252103513D 0   0.00000     0.00000

 25 27  0     1  0            999 V2000
   -2.7769   -0.0048    2.2750 O   0  0  0  0  0  2           0  0  0
   -0.6705    0.0000    1.1754 N   0  0  0  0  0  3           0  0  0
   -0.6200    0.0012   -1.2057 N   0  0  0  0  0  3           0  0  0
    1.4051    0.0000   -0.0000 N   0  0  0  0  0  3           0  0  0
   -2.6269   -0.0209   -2.4687 N   0  0  0  0  0  3           0  0  0
    5.0601   -2.1607    5.7938 N   0  0  0  0  0  3           0  0  0
   -2.0194   -0.0013    1.1133 C   0  0  0  0  0  4           0  0  0
    0.0000    0.0000    0.0000 C   0  0  0  0  0  4           0  0  0
   -1.9747    0.0163   -1.2390 C   0  0  0  0  0  4           0  0  0
    2.3181    0.0000    1.0579 C   0  0  0  0  0  4           0  0  0
    4.2252   -0.0442    3.1527 C   0  0  0  0  0  4           0  0  0
   -2.7226    0.0009   -0.0738 C   0  0  0  0  0  4           0  0  0
    2.0382    0.5903    2.2986 C   0  0  0  0  0  4           0  0  0
    3.5695   -0.6104    0.8844 C   0  0  0  0  0  4           0  0  0
    2.9809    0.5713    3.3324 C   0  0  0  0  0  4           0  0  0
    4.5126   -0.6316    1.9160 C   0  0  0  0  0  4           0  0  0
   -2.0309   -0.0068    3.4933 C   0  0  0  0  0  4           0  0  0
    5.1385   -1.2252    5.1114 C   0  0  0  0  0  4           0  0  0
    5.2448   -0.0439    4.2543 C   0  0  0  0  0  4           0  0  0
   -3.0071   -0.0105    4.6669 C   0  0  2  0  0  4           0  0  0
   -2.2667   -0.0128    6.0127 C   0  0  0  0  0  4           0  0  0
   -4.0062    1.1587    4.6049 C   0  0  0  0  0  4           0  0  0
   -1.6230    1.3335    6.3402 C   0  0  0  0  0  4           0  0  0
   -3.3672    2.5067    4.9351 C   0  0  0  0  0  4           0  0  0
   -2.6370    2.4714    6.2741 C   0  0  0  0  0  4           0  0  0
  1  7  1  0     0  0
  1 17  1  0     0  0
  2  7  2  0     0  0
  2  8  1  0     0  0
  3  8  2  0     0  0
  3  9  1  0     0  0
  4  8  1  0     0  0
  4 10  1  0     0  0
  5  9  1  0     0  0
  6 18  3  0     0  0
  7 12  1  0     0  0
  9 12  2  0     0  0
 10 13  2  0     0  0
 10 14  1  0     0  0
 11 15  2  0     0  0
 11 16  1  0     0  0
 11 19  1  0     0  0
 13 15  1  0     0  0
 14 16  2  0     0  0
 17 20  1  0     0  0
 18 19  1  0     0  0
 20 21  1  0     0  0
 20 22  1  0     0  0
 21 23  1  0     0  0
 22 24  1  0     0  0
 23 25  1  0     0  0
 24 25  1  0     0  0
M  END
> <Compound >
13

> <standard_type>
pIC50

> <# Confs.>
25

> <canonical_smiles>
NC1=CC(OCC2CCCCC2)=NC(NC3=CC=C(CC#N)C=C3)=N1

> <standard_relation>
=

> <predicted_activity_value>
4.517134988077452

> <actual_activity_value>
4.619788758288394

> <Publication ID>
nan

> <standard_units>
nM

> hash
5259875804365495897

$$$$
12
XXILIB    08252103513D 0   0.00000     0.00000

 25 27  0     1  0            999 V2000
   -2.7769   -0.0048    2.2750 O   0  0  0  0  0  2           0  0  0
   -0.6705    0.0000    1.1754 N   0  0  0  0  0  3           0  0  0
   -0.6200    0.0012   -1.2057 N   0  0  0  0  0  3           0  0  0
    1.4051    0.0000   -0.0000 N   0  0  0  0  0  3           0  0  0
   -2.6269   -0.0209   -2.4687 N   0  0  0  0  0  3           0  0  0
    5.0601   -2.1607    5.7938 N   0  0  0  0  0  3           0  0  0
   -2.0194   -0.0013    1.1133 C   0  0  0  0  0  4           0  0  0
    0.0000    0.0000    0.0000 C   0  0  0  0  0  4           0  0  0
   -1.9747    0.0163   -1.2390 C   0  0  0  0  0  4           0  0  0
    2.3181    0.0000    1.0579 C   0  0  0  0  0  4           0  0  0
    4.2252   -0.0442    3.1527 C   0  0  0  0  0  4           0  0  0
   -2.7226    0.0009   -0.0738 C   0  0  0  0  0  4           0  0  0
    2.0382    0.5903    2.2986 C   0  0  0  0  0  4           0  0  0
    3.5695   -0.6104    0.8844 C   0  0  0  0  0  4           0  0  0
    2.9809    0.5713    3.3324 C   0  0  0  0  0  4           0  0  0
    4.5126   -0.6316    1.9160 C   0  0  0  0  0  4           0  0  0
   -2.0309   -0.0068    3.4933 C   0  0  0  0  0  4           0  0  0
    5.1385   -1.2252    5.1114 C   0  0  0  0  0  4           0  0  0
    5.2448   -0.0439    4.2543 C   0  0  0  0  0  4           0  0  0
   -3.0071   -0.0105    4.6669 C   0  0  2  0  0  4           0  0  0
   -3.9143   -1.2498    4.6382 C   0  0  0  0  0  4           0  0  0
   -2.2937    0.1022    6.0261 C   0  0  0  0  0  4           0  0  0
   -3.1826   -2.5322    5.0306 C   0  0  0  0  0  4           0  0  0
   -1.5633   -1.1795    6.4239 C   0  0  0  0  0  4           0  0  0
   -2.4887   -2.3916    6.3819 C   0  0  0  0  0  4           0  0  0
  1  7  1  0     0  0
  1 17  1  0     0  0
  2  7  2  0     0  0
  2  8  1  0     0  0
  3  8  2  0     0  0
  3  9  1  0     0  0
  4  8  1  0     0  0
  4 10  1  0     0  0
  5  9  1  0     0  0
  6 18  3  0     0  0
  7 12  1  0     0  0
  9 12  2  0     0  0
 10 13  2  0     0  0
 10 14  1  0     0  0
 11 15  2  0     0  0
 11 16  1  0     0  0
 11 19  1  0     0  0
 13 15  1  0     0  0
 14 16  2  0     0  0
 17 20  1  0     0  0
 18 19  1  0     0  0
 20 21  1  0     0  0
 20 22  1  0     0  0
 21 23  1  0     0  0
 22 24  1  0     0  0
 23 25  1  0     0  0
 24 25  1  0     0  0
M  END
> <Compound >
13

> <standard_type>
pIC50

> <# Confs.>
25

> <canonical_smiles>
NC1=CC(OCC2CCCCC2)=NC(NC3=CC=C(CC#N)C=C3)=N1

> <standard_relation>
=

> <predicted_activity_value>
4.517134988077452

> <actual_activity_value>
4.619788758288394

> <Publication ID>
nan

> <standard_units>
nM

> hash
5259875804365495897

$$$$
12
XXILIB    08252103513D 0   0.00000     0.00000

 25 27  0     1  0            999 V2000
   -2.7769   -0.0048    2.2750 O   0  0  0  0  0  2           0  0  0
   -0.6705    0.0000    1.1754 N   0  0  0  0  0  3           0  0  0
   -0.6200    0.0012   -1.2057 N   0  0  0  0  0  3           0  0  0
    1.4051   -0.0000    0.0000 N   0  0  0  0  0  3           0  0  0
   -2.6269   -0.0209   -2.4687 N   0  0  0  0  0  3           0  0  0
    6.7934   -2.0733   -4.1885 N   0  0  0  0  0  3           0  0  0
   -2.0194   -0.0013    1.1133 C   0  0  0  0  0  4           0  0  0
    0.0000    0.0000    0.0000 C   0  0  0  0  0  4           0  0  0
   -1.9747    0.0163   -1.2390 C   0  0  0  0  0  4           0  0  0
    2.3181    0.0000   -1.0579 C   0  0  0  0  0  4           0  0  0
    4.2252    0.0442   -3.1527 C   0  0  0  0  0  4           0  0  0
   -2.7226    0.0009   -0.0738 C   0  0  0  0  0  4           0  0  0
    2.0382   -0.5903   -2.2986 C   0  0  0  0  0  4           0  0  0
    3.5695    0.6104   -0.8844 C   0  0  0  0  0  4           0  0  0
    2.9809   -0.5713   -3.3324 C   0  0  0  0  0  4           0  0  0
    4.5126    0.6316   -1.9160 C   0  0  0  0  0  4           0  0  0
   -2.0309   -0.0068    3.4933 C   0  0  0  0  0  4           0  0  0
    6.1072   -1.1377   -4.2143 C   0  0  0  0  0  4           0  0  0
    5.2448    0.0439   -4.2543 C   0  0  0  0  0  4           0  0  0
   -3.0071   -0.0105    4.6669 C   0  0  2  0  0  4           0  0  0
   -3.9184    1.2273    4.6453 C   0  0  0  0  0  4           0  0  0
   -2.2705   -0.1035    6.0129 C   0  0  0  0  0  4           0  0  0
   -4.8979    1.2221    5.8177 C   0  0  0  0  0  4           0  0  0
   -3.2481   -0.1103    7.1869 C   0  0  0  0  0  4           0  0  0
   -4.1717    1.1038    7.1545 C   0  0  0  0  0  4           0  0  0
  1  7  1  0     0  0
  1 17  1  0     0  0
  2  7  2  0     0  0
  2  8  1  0     0  0
  3  8  2  0     0  0
  3  9  1  0     0  0
  4  8  1  0     0  0
  4 10  1  0     0  0
  5  9  1  0     0  0
  6 18  3  0     0  0
  7 12  1  0     0  0
  9 12  2  0     0  0
 10 13  2  0     0  0
 10 14  1  0     0  0
 11 15  2  0     0  0
 11 16  1  0     0  0
 11 19  1  0     0  0
 13 15  1  0     0  0
 14 16  2  0     0  0
 17 20  1  0     0  0
 18 19  1  0     0  0
 20 21  1  0     0  0
 20 22  1  0     0  0
 21 23  1  0     0  0
 22 24  1  0     0  0
 23 25  1  0     0  0
 24 25  1  0     0  0
M  END
> <Compound >
13

> <standard_type>
pIC50

> <# Confs.>
25

> <canonical_smiles>
NC1=CC(OCC2CCCCC2)=NC(NC3=CC=C(CC#N)C=C3)=N1

> <standard_relation>
=

> <predicted_activity_value>
4.517134988077452

> <actual_activity_value>
4.619788758288394

> <Publication ID>
nan

> <standard_units>
nM

> hash
5259875804365495897

$$$$
12
XXILIB    08252103513D 0   0.00000     0.00000

 25 27  0     1  0            999 V2000
   -2.7769   -0.0048    2.2750 O   0  0  0  0  0  2           0  0  0
   -0.6705    0.0000    1.1754 N   0  0  0  0  0  3           0  0  0
   -0.6200    0.0012   -1.2057 N   0  0  0  0  0  3           0  0  0
    1.4051    0.0000    0.0000 N   0  0  0  0  0  3           0  0  0
   -2.6269   -0.0209   -2.4687 N   0  0  0  0  0  3           0  0  0
    6.8621    1.9621   -4.2388 N   0  0  0  0  0  3           0  0  0
   -2.0194   -0.0013    1.1133 C   0  0  0  0  0  4           0  0  0
    0.0000    0.0000    0.0000 C   0  0  0  0  0  4           0  0  0
   -1.9747    0.0163   -1.2390 C   0  0  0  0  0  4           0  0  0
    2.3181    0.0000   -1.0579 C   0  0  0  0  0  4           0  0  0
    4.2257   -0.0431   -3.1523 C   0  0  0  0  0  4           0  0  0
   -2.7226    0.0009   -0.0738 C   0  0  0  0  0  4           0  0  0
    2.0382    0.5903   -2.2986 C   0  0  0  0  0  4           0  0  0
    3.5682   -0.6135   -0.8856 C   0  0  0  0  0  4           0  0  0
    2.9788    0.5666   -3.3342 C   0  0  0  0  0  4           0  0  0
    4.5100   -0.6376   -1.9183 C   0  0  0  0  0  4           0  0  0
   -2.0309   -0.0068    3.4933 C   0  0  0  0  0  4           0  0  0
    6.1360    1.0568   -4.2506 C   0  0  0  0  0  4           0  0  0
    5.2253   -0.0885   -4.2711 C   0  0  0  0  0  4           0  0  0
   -3.0071   -0.0105    4.6669 C   0  0  2  0  0  4           0  0  0
   -3.9184    1.2273    4.6453 C   0  0  0  0  0  4           0  0  0
   -2.2705   -0.1035    6.0129 C   0  0  0  0  0  4           0  0  0
   -4.8979    1.2221    5.8177 C   0  0  0  0  0  4           0  0  0
   -3.2481   -0.1103    7.1869 C   0  0  0  0  0  4           0  0  0
   -4.1717    1.1038    7.1545 C   0  0  0  0  0  4           0  0  0
  1  7  1  0     0  0
  1 17  1  0     0  0
  2  7  2  0     0  0
  2  8  1  0     0  0
  3  8  2  0     0  0
  3  9  1  0     0  0
  4  8  1  0     0  0
  4 10  1  0     0  0
  5  9  1  0     0  0
  6 18  3  0     0  0
  7 12  1  0     0  0
  9 12  2  0     0  0
 10 13  2  0     0  0
 10 14  1  0     0  0
 11 15  2  0     0  0
 11 16  1  0     0  0
 11 19  1  0     0  0
 13 15  1  0     0  0
 14 16  2  0     0  0
 17 20  1  0     0  0
 18 19  1  0     0  0
 20 21  1  0     0  0
 20 22  1  0     0  0
 21 23  1  0     0  0
 22 24  1  0     0  0
 23 25  1  0     0  0
 24 25  1  0     0  0
M  END
> <Compound >
13

> <standard_type>
pIC50

> <# Confs.>
25

> <canonical_smiles>
NC1=CC(OCC2CCCCC2)=NC(NC3=CC=C(CC#N)C=C3)=N1

> <standard_relation>
=

> <predicted_activity_value>
4.517134988077452

> <actual_activity_value>
4.619788758288394

> <Publication ID>
nan

> <standard_units>
nM

> hash
5259875804365495897

$$$$
12
XXILIB    08252103513D 0   0.00000     0.00000

 25 27  0     1  0            999 V2000
   -2.7769   -0.0048    2.2750 O   0  0  0  0  0  2           0  0  0
   -0.6705    0.0000    1.1754 N   0  0  0  0  0  3           0  0  0
   -0.6200    0.0012   -1.2057 N   0  0  0  0  0  3           0  0  0
    1.4051   -0.0000    0.0000 N   0  0  0  0  0  3           0  0  0
   -2.6269   -0.0209   -2.4687 N   0  0  0  0  0  3           0  0  0
    6.7934   -2.0733   -4.1885 N   0  0  0  0  0  3           0  0  0
   -2.0194   -0.0013    1.1133 C   0  0  0  0  0  4           0  0  0
    0.0000    0.0000    0.0000 C   0  0  0  0  0  4           0  0  0
   -1.9747    0.0163   -1.2390 C   0  0  0  0  0  4           0  0  0
    2.3181    0.0000   -1.0579 C   0  0  0  0  0  4           0  0  0
    4.2252    0.0442   -3.1527 C   0  0  0  0  0  4           0  0  0
   -2.7226    0.0009   -0.0738 C   0  0  0  0  0  4           0  0  0
    2.0382   -0.5903   -2.2986 C   0  0  0  0  0  4           0  0  0
    3.5695    0.6104   -0.8844 C   0  0  0  0  0  4           0  0  0
    2.9809   -0.5713   -3.3324 C   0  0  0  0  0  4           0  0  0
    4.5126    0.6316   -1.9160 C   0  0  0  0  0  4           0  0  0
   -2.0309   -0.0068    3.4933 C   0  0  0  0  0  4           0  0  0
    6.1072   -1.1377   -4.2143 C   0  0  0  0  0  4           0  0  0
    5.2448    0.0439   -4.2543 C   0  0  0  0  0  4           0  0  0
   -3.0071   -0.0105    4.6669 C   0  0  2  0  0  4           0  0  0
   -2.2676   -0.0128    6.0146 C   0  0  0  0  0  4           0  0  0
   -3.9755   -1.2020    4.5911 C   0  0  0  0  0  4           0  0  0
   -3.2443   -0.0130    7.1893 C   0  0  0  0  0  4           0  0  0
   -4.9542   -1.2034    5.7642 C   0  0  0  0  0  4           0  0  0
   -4.2239   -1.1797    7.1038 C   0  0  0  0  0  4           0  0  0
  1  7  1  0     0  0
  1 17  1  0     0  0
  2  7  2  0     0  0
  2  8  1  0     0  0
  3  8  2  0     0  0
  3  9  1  0     0  0
  4  8  1  0     0  0
  4 10  1  0     0  0
  5  9  1  0     0  0
  6 18  3  0     0  0
  7 12  1  0     0  0
  9 12  2  0     0  0
 10 13  2  0     0  0
 10 14  1  0     0  0
 11 15  2  0     0  0
 11 16  1  0     0  0
 11 19  1  0     0  0
 13 15  1  0     0  0
 14 16  2  0     0  0
 17 20  1  0     0  0
 18 19  1  0     0  0
 20 21  1  0     0  0
 20 22  1  0     0  0
 21 23  1  0     0  0
 22 24  1  0     0  0
 23 25  1  0     0  0
 24 25  1  0     0  0
M  END
> <Compound >
13

> <standard_type>
pIC50

> <# Confs.>
25

> <canonical_smiles>
NC1=CC(OCC2CCCCC2)=NC(NC3=CC=C(CC#N)C=C3)=N1

> <standard_relation>
=

> <predicted_activity_value>
4.517134988077452

> <actual_activity_value>
4.619788758288394

> <Publication ID>
nan

> <standard_units>
nM

> hash
5259875804365495897

$$$$
12
XXILIB    08252103513D 0   0.00000     0.00000

 25 27  0     1  0            999 V2000
   -2.7769   -0.0048    2.2750 O   0  0  0  0  0  2           0  0  0
   -0.6705    0.0000    1.1754 N   0  0  0  0  0  3           0  0  0
   -0.6200    0.0012   -1.2057 N   0  0  0  0  0  3           0  0  0
    1.4051    0.0000    0.0000 N   0  0  0  0  0  3           0  0  0
   -2.6269   -0.0209   -2.4687 N   0  0  0  0  0  3           0  0  0
    6.8621    1.9621   -4.2388 N   0  0  0  0  0  3           0  0  0
   -2.0194   -0.0013    1.1133 C   0  0  0  0  0  4           0  0  0
    0.0000    0.0000    0.0000 C   0  0  0  0  0  4           0  0  0
   -1.9747    0.0163   -1.2390 C   0  0  0  0  0  4           0  0  0
    2.3181    0.0000   -1.0579 C   0  0  0  0  0  4           0  0  0
    4.2257   -0.0431   -3.1523 C   0  0  0  0  0  4           0  0  0
   -2.7226    0.0009   -0.0738 C   0  0  0  0  0  4           0  0  0
    2.0382    0.5903   -2.2986 C   0  0  0  0  0  4           0  0  0
    3.5682   -0.6135   -0.8856 C   0  0  0  0  0  4           0  0  0
    2.9788    0.5666   -3.3342 C   0  0  0  0  0  4           0  0  0
    4.5100   -0.6376   -1.9183 C   0  0  0  0  0  4           0  0  0
   -2.0309   -0.0068    3.4933 C   0  0  0  0  0  4           0  0  0
    6.1360    1.0568   -4.2506 C   0  0  0  0  0  4           0  0  0
    5.2253   -0.0885   -4.2711 C   0  0  0  0  0  4           0  0  0
   -3.0071   -0.0105    4.6669 C   0  0  2  0  0  4           0  0  0
   -2.2676   -0.0128    6.0146 C   0  0  0  0  0  4           0  0  0
   -3.9755   -1.2020    4.5911 C   0  0  0  0  0  4           0  0  0
   -3.2443   -0.0130    7.1893 C   0  0  0  0  0  4           0  0  0
   -4.9542   -1.2034    5.7642 C   0  0  0  0  0  4           0  0  0
   -4.2239   -1.1797    7.1038 C   0  0  0  0  0  4           0  0  0
  1  7  1  0     0  0
  1 17  1  0     0  0
  2  7  2  0     0  0
  2  8  1  0     0  0
  3  8  2  0     0  0
  3  9  1  0     0  0
  4  8  1  0     0  0
  4 10  1  0     0  0
  5  9  1  0     0  0
  6 18  3  0     0  0
  7 12  1  0     0  0
  9 12  2  0     0  0
 10 13  2  0     0  0
 10 14  1  0     0  0
 11 15  2  0     0  0
 11 16  1  0     0  0
 11 19  1  0     0  0
 13 15  1  0     0  0
 14 16  2  0     0  0
 17 20  1  0     0  0
 18 19  1  0     0  0
 20 21  1  0     0  0
 20 22  1  0     0  0
 21 23  1  0     0  0
 22 24  1  0     0  0
 23 25  1  0     0  0
 24 25  1  0     0  0
M  END
> <Compound >
13

> <standard_type>
pIC50

> <# Confs.>
25

> <canonical_smiles>
NC1=CC(OCC2CCCCC2)=NC(NC3=CC=C(CC#N)C=C3)=N1

> <standard_relation>
=

> <predicted_activity_value>
4.517134988077452

> <actual_activity_value>
4.619788758288394

> <Publication ID>
nan

> <standard_units>
nM

> hash
5259875804365495897

$$$$
12
XXILIB    08252103513D 0   0.00000     0.00000

 25 27  0     1  0            999 V2000
   -2.7769   -0.0048    2.2750 O   0  0  0  0  0  2           0  0  0
   -0.6705    0.0000    1.1754 N   0  0  0  0  0  3           0  0  0
   -0.6200    0.0012   -1.2057 N   0  0  0  0  0  3           0  0  0
    1.4051   -0.0000    0.0000 N   0  0  0  0  0  3           0  0  0
   -2.6269   -0.0209   -2.4687 N   0  0  0  0  0  3           0  0  0
    6.7934   -2.0733   -4.1885 N   0  0  0  0  0  3           0  0  0
   -2.0194   -0.0013    1.1133 C   0  0  0  0  0  4           0  0  0
    0.0000    0.0000    0.0000 C   0  0  0  0  0  4           0  0  0
   -1.9747    0.0163   -1.2390 C   0  0  0  0  0  4           0  0  0
    2.3181    0.0000   -1.0579 C   0  0  0  0  0  4           0  0  0
    4.2252    0.0442   -3.1527 C   0  0  0  0  0  4           0  0  0
   -2.7226    0.0009   -0.0738 C   0  0  0  0  0  4           0  0  0
    2.0382   -0.5903   -2.2986 C   0  0  0  0  0  4           0  0  0
    3.5695    0.6104   -0.8844 C   0  0  0  0  0  4           0  0  0
    2.9809   -0.5713   -3.3324 C   0  0  0  0  0  4           0  0  0
    4.5126    0.6316   -1.9160 C   0  0  0  0  0  4           0  0  0
   -2.0309   -0.0068    3.4933 C   0  0  0  0  0  4           0  0  0
    6.1072   -1.1377   -4.2143 C   0  0  0  0  0  4           0  0  0
    5.2448    0.0439   -4.2543 C   0  0  0  0  0  4           0  0  0
   -3.0071   -0.0105    4.6669 C   0  0  2  0  0  4           0  0  0
   -3.9158   -1.2502    4.6396 C   0  0  0  0  0  4           0  0  0
   -3.8573    1.2698    4.6973 C   0  0  0  0  0  4           0  0  0
   -4.8905   -1.2560    5.8160 C   0  0  0  0  0  4           0  0  0
   -4.8320    1.2669    5.8738 C   0  0  0  0  0  4           0  0  0
   -5.7183    0.0249    5.8646 C   0  0  0  0  0  4           0  0  0
  1  7  1  0     0  0
  1 17  1  0     0  0
  2  7  2  0     0  0
  2  8  1  0     0  0
  3  8  2  0     0  0
  3  9  1  0     0  0
  4  8  1  0     0  0
  4 10  1  0     0  0
  5  9  1  0     0  0
  6 18  3  0     0  0
  7 12  1  0     0  0
  9 12  2  0     0  0
 10 13  2  0     0  0
 10 14  1  0     0  0
 11 15  2  0     0  0
 11 16  1  0     0  0
 11 19  1  0     0  0
 13 15  1  0     0  0
 14 16  2  0     0  0
 17 20  1  0     0  0
 18 19  1  0     0  0
 20 21  1  0     0  0
 20 22  1  0     0  0
 21 23  1  0     0  0
 22 24  1  0     0  0
 23 25  1  0     0  0
 24 25  1  0     0  0
M  END
> <Compound >
13

> <standard_type>
pIC50

> <# Confs.>
25

> <canonical_smiles>
NC1=CC(OCC2CCCCC2)=NC(NC3=CC=C(CC#N)C=C3)=N1

> <standard_relation>
=

> <predicted_activity_value>
4.517134988077452

> <actual_activity_value>
4.619788758288394

> <Publication ID>
nan

> <standard_units>
nM

> hash
5259875804365495897

$$$$
3
XXILIB    08252103513D 0   0.00000     0.00000

 23 24  0     1  0            999 V2000
    5.3820   -0.1157    4.4452 S   0  0  2  0  0  6           0  0  0
    4.6499   -0.0166    5.6927 O   0  0  0  0  0  2           0  0  0
    6.2595   -1.2400    4.1844 O   0  0  0  0  0  2           0  0  0
   -4.5465    0.5575   -1.1095 O   0  0  0  0  0  2           0  0  0
   -2.7511   -0.0034    2.2963 O   0  0  0  0  0  2           0  0  0
   -0.6719   -0.0000    1.1718 N   0  0  0  0  0  3           0  0  0
   -0.6184    0.0023   -1.2040 N   0  0  0  0  0  3           0  0  0
    6.2324    1.3367    4.1731 N   0  0  0  0  0  3           0  0  0
   -4.1065   -0.0115   -0.1029 N   0  0  0  0  0  3           0  0  0
    1.4051   -0.0000   -0.0000 N   0  0  0  0  0  3           0  0  0
   -2.5800   -0.0108   -2.5038 N   0  0  0  0  0  3           0  0  0
    4.2059   -0.0440    3.1328 C   0  0  0  0  0  4           0  0  0
   -2.0230   -0.0047    1.1153 C   0  0  0  0  0  4           0  0  0
    0.0000    0.0000    0.0000 C   0  0  0  0  0  4           0  0  0
   -1.9745    0.0165   -1.2480 C   0  0  0  0  0  4           0  0  0
   -2.7354   -0.0116   -0.0796 C   0  0  0  0  0  4           0  0  0
    2.3178   -0.0000    1.0576 C   0  0  0  0  0  4           0  0  0
    2.9731    0.5697    3.3368 C   0  0  0  0  0  4           0  0  0
    4.5100   -0.6442    1.9136 C   0  0  0  0  0  4           0  0  0
    2.0361    0.5916    2.2995 C   0  0  0  0  0  4           0  0  0
    3.5680   -0.6165    0.8833 C   0  0  0  0  0  4           0  0  0
   -1.9502    0.0030    3.4778 C   0  0  0  0  0  4           0  0  0
   -2.8776    0.0037    4.6793 C   0  0  0  0  0  4           0  0  0
  1  2  2  0     0  0
  1  3  2  0     0  0
  1  8  1  0     0  0
  1 12  1  0     0  0
  4  9  2  0     0  0
  5 13  1  0     0  0
  5 22  1  0     0  0
  6 13  2  0     0  0
  6 14  1  0     0  0
  7 14  2  0     0  0
  7 15  1  0     0  0
  9 16  1  0     0  0
 10 14  1  0     0  0
 10 17  1  0     0  0
 11 15  1  0     0  0
 12 18  2  0     0  0
 12 19  1  0     0  0
 13 16  1  0     0  0
 15 16  2  0     0  0
 17 20  2  0     0  0
 17 21  1  0     0  0
 18 20  1  0     0  0
 19 21  2  0     0  0
 22 23  1  0     0  0
M  END
> <Compound >
4

> <standard_type>
pIC50

> <# Confs.>
25

> <canonical_smiles>
CCOC1=NC(NC2=CC=C(S(=O)(N)=O)C=C2)=NC(N)=C1N=O

> <standard_relation>
=

> <predicted_activity_value>
6.953114809162289

> <actual_activity_value>
7.031517051446065

> <Publication ID>
nan

> <standard_units>
nM

> hash
3817718728431901872

$$$$
3
XXILIB    08252103513D 0   0.00000     0.00000

 23 24  0     1  0            999 V2000
    5.3820   -0.1157    4.4452 S   0  0  2  0  0  6           0  0  0
    6.6957   -0.2502    3.8464 O   0  0  0  0  0  2           0  0  0
    5.0872    0.9731    5.3560 O   0  0  0  0  0  2           0  0  0
   -4.5465    0.5575   -1.1095 O   0  0  0  0  0  2           0  0  0
   -2.7511   -0.0034    2.2963 O   0  0  0  0  0  2           0  0  0
   -0.6719   -0.0000    1.1718 N   0  0  0  0  0  3           0  0  0
   -0.6184    0.0023   -1.2040 N   0  0  0  0  0  3           0  0  0
    4.9393   -1.5929    5.1720 N   0  0  0  0  0  3           0  0  0
   -4.1065   -0.0115   -0.1029 N   0  0  0  0  0  3           0  0  0
    1.4051   -0.0000   -0.0000 N   0  0  0  0  0  3           0  0  0
   -2.5800   -0.0108   -2.5038 N   0  0  0  0  0  3           0  0  0
    4.2059   -0.0440    3.1328 C   0  0  0  0  0  4           0  0  0
   -2.0230   -0.0047    1.1153 C   0  0  0  0  0  4           0  0  0
    0.0000    0.0000    0.0000 C   0  0  0  0  0  4           0  0  0
   -1.9745    0.0165   -1.2480 C   0  0  0  0  0  4           0  0  0
   -2.7354   -0.0116   -0.0796 C   0  0  0  0  0  4           0  0  0
    2.3178   -0.0000    1.0576 C   0  0  0  0  0  4           0  0  0
    2.9731    0.5697    3.3368 C   0  0  0  0  0  4           0  0  0
    4.5100   -0.6442    1.9136 C   0  0  0  0  0  4           0  0  0
    2.0361    0.5916    2.2995 C   0  0  0  0  0  4           0  0  0
    3.5680   -0.6165    0.8833 C   0  0  0  0  0  4           0  0  0
   -1.9502    0.0030    3.4778 C   0  0  0  0  0  4           0  0  0
   -2.8776    0.0037    4.6793 C   0  0  0  0  0  4           0  0  0
  1  2  2  0     0  0
  1  3  2  0     0  0
  1  8  1  0     0  0
  1 12  1  0     0  0
  4  9  2  0     0  0
  5 13  1  0     0  0
  5 22  1  0     0  0
  6 13  2  0     0  0
  6 14  1  0     0  0
  7 14  2  0     0  0
  7 15  1  0     0  0
  9 16  1  0     0  0
 10 14  1  0     0  0
 10 17  1  0     0  0
 11 15  1  0     0  0
 12 18  2  0     0  0
 12 19  1  0     0  0
 13 16  1  0     0  0
 15 16  2  0     0  0
 17 20  2  0     0  0
 17 21  1  0     0  0
 18 20  1  0     0  0
 19 21  2  0     0  0
 22 23  1  0     0  0
M  END
> <Compound >
4

> <standard_type>
pIC50

> <# Confs.>
25

> <canonical_smiles>
CCOC1=NC(NC2=CC=C(S(=O)(N)=O)C=C2)=NC(N)=C1N=O

> <standard_relation>
=

> <predicted_activity_value>
6.953114809162289

> <actual_activity_value>
7.031517051446065

> <Publication ID>
nan

> <standard_units>
nM

> hash
3817718728431901872

$$$$
3
XXILIB    08252103513D 0   0.00000     0.00000

 23 24  0     1  0            999 V2000
    5.4175    0.0346    4.4146 S   0  0  2  0  0  6           0  0  0
    5.1387   -1.1017    5.2708 O   0  0  0  0  0  2           0  0  0
    6.7162    0.1953    3.7904 O   0  0  0  0  0  2           0  0  0
   -4.5465    0.5575   -1.1095 O   0  0  0  0  0  2           0  0  0
   -2.7511   -0.0034    2.2963 O   0  0  0  0  0  2           0  0  0
   -0.6719   -0.0000    1.1718 N   0  0  0  0  0  3           0  0  0
   -0.6184    0.0023   -1.2040 N   0  0  0  0  0  3           0  0  0
    5.0046    1.4722    5.2326 N   0  0  0  0  0  3           0  0  0
   -4.1065   -0.0115   -0.1029 N   0  0  0  0  0  3           0  0  0
    1.4051    0.0000    0.0000 N   0  0  0  0  0  3           0  0  0
   -2.5800   -0.0108   -2.5038 N   0  0  0  0  0  3           0  0  0
    4.2069    0.0418    3.1320 C   0  0  0  0  0  4           0  0  0
   -2.0230   -0.0047    1.1153 C   0  0  0  0  0  4           0  0  0
    0.0000    0.0000    0.0000 C   0  0  0  0  0  4           0  0  0
   -1.9745    0.0165   -1.2480 C   0  0  0  0  0  4           0  0  0
   -2.7354   -0.0116   -0.0796 C   0  0  0  0  0  4           0  0  0
    2.3178    0.0000    1.0576 C   0  0  0  0  0  4           0  0  0
    2.9754   -0.5751    3.3347 C   0  0  0  0  0  4           0  0  0
    4.5158    0.6310    1.9086 C   0  0  0  0  0  4           0  0  0
    2.0361   -0.5916    2.2995 C   0  0  0  0  0  4           0  0  0
    3.5708    0.6101    0.8809 C   0  0  0  0  0  4           0  0  0
   -1.9502    0.0030    3.4778 C   0  0  0  0  0  4           0  0  0
   -2.8776    0.0037    4.6793 C   0  0  0  0  0  4           0  0  0
  1  2  2  0     0  0
  1  3  2  0     0  0
  1  8  1  0     0  0
  1 12  1  0     0  0
  4  9  2  0     0  0
  5 13  1  0     0  0
  5 22  1  0     0  0
  6 13  2  0     0  0
  6 14  1  0     0  0
  7 14  2  0     0  0
  7 15  1  0     0  0
  9 16  1  0     0  0
 10 14  1  0     0  0
 10 17  1  0     0  0
 11 15  1  0     0  0
 12 18  2  0     0  0
 12 19  1  0     0  0
 13 16  1  0     0  0
 15 16  2  0     0  0
 17 20  2  0     0  0
 17 21  1  0     0  0
 18 20  1  0     0  0
 19 21  2  0     0  0
 22 23  1  0     0  0
M  END
> <Compound >
4

> <standard_type>
pIC50

> <# Confs.>
25

> <canonical_smiles>
CCOC1=NC(NC2=CC=C(S(=O)(N)=O)C=C2)=NC(N)=C1N=O

> <standard_relation>
=

> <predicted_activity_value>
6.953114809162289

> <actual_activity_value>
7.031517051446065

> <Publication ID>
nan

> <standard_units>
nM

> hash
3817718728431901872

$$$$
3
XXILIB    08252103513D 0   0.00000     0.00000

 23 24  0     1  0            999 V2000
    5.4175    0.0346    4.4146 S   0  0  2  0  0  6           0  0  0
    6.2947    1.1674    4.1924 O   0  0  0  0  0  2           0  0  0
    4.7185   -0.1297    5.6742 O   0  0  0  0  0  2           0  0  0
   -4.5465    0.5575   -1.1095 O   0  0  0  0  0  2           0  0  0
   -2.7511   -0.0034    2.2963 O   0  0  0  0  0  2           0  0  0
   -0.6719   -0.0000    1.1718 N   0  0  0  0  0  3           0  0  0
   -0.6184    0.0023   -1.2040 N   0  0  0  0  0  3           0  0  0
    6.2499   -1.4055    4.0410 N   0  0  0  0  0  3           0  0  0
   -4.1065   -0.0115   -0.1029 N   0  0  0  0  0  3           0  0  0
    1.4051    0.0000    0.0000 N   0  0  0  0  0  3           0  0  0
   -2.5800   -0.0108   -2.5038 N   0  0  0  0  0  3           0  0  0
    4.2069    0.0418    3.1320 C   0  0  0  0  0  4           0  0  0
   -2.0230   -0.0047    1.1153 C   0  0  0  0  0  4           0  0  0
    0.0000    0.0000    0.0000 C   0  0  0  0  0  4           0  0  0
   -1.9745    0.0165   -1.2480 C   0  0  0  0  0  4           0  0  0
   -2.7354   -0.0116   -0.0796 C   0  0  0  0  0  4           0  0  0
    2.3178    0.0000    1.0576 C   0  0  0  0  0  4           0  0  0
    2.9754   -0.5751    3.3347 C   0  0  0  0  0  4           0  0  0
    4.5158    0.6310    1.9086 C   0  0  0  0  0  4           0  0  0
    2.0361   -0.5916    2.2995 C   0  0  0  0  0  4           0  0  0
    3.5708    0.6101    0.8809 C   0  0  0  0  0  4           0  0  0
   -1.9502    0.0030    3.4778 C   0  0  0  0  0  4           0  0  0
   -2.8776    0.0037    4.6793 C   0  0  0  0  0  4           0  0  0
  1  2  2  0     0  0
  1  3  2  0     0  0
  1  8  1  0     0  0
  1 12  1  0     0  0
  4  9  2  0     0  0
  5 13  1  0     0  0
  5 22  1  0     0  0
  6 13  2  0     0  0
  6 14  1  0     0  0
  7 14  2  0     0  0
  7 15  1  0     0  0
  9 16  1  0     0  0
 10 14  1  0     0  0
 10 17  1  0     0  0
 11 15  1  0     0  0
 12 18  2  0     0  0
 12 19  1  0     0  0
 13 16  1  0     0  0
 15 16  2  0     0  0
 17 20  2  0     0  0
 17 21  1  0     0  0
 18 20  1  0     0  0
 19 21  2  0     0  0
 22 23  1  0     0  0
M  END
> <Compound >
4

> <standard_type>
pIC50

> <# Confs.>
25

> <canonical_smiles>
CCOC1=NC(NC2=CC=C(S(=O)(N)=O)C=C2)=NC(N)=C1N=O

> <standard_relation>
=

> <predicted_activity_value>
6.953114809162289

> <actual_activity_value>
7.031517051446065

> <Publication ID>
nan

> <standard_units>
nM

> hash
3817718728431901872

$$$$
3
XXILIB    08252103513D 0   0.00000     0.00000

 23 24  0     1  0            999 V2000
    5.3820    0.1157   -4.4452 S   0  0  2  0  0  6           0  0  0
    6.6957    0.2502   -3.8464 O   0  0  0  0  0  2           0  0  0
    5.0872   -0.9731   -5.3560 O   0  0  0  0  0  2           0  0  0
   -4.5465    0.5575   -1.1095 O   0  0  0  0  0  2           0  0  0
   -2.7511   -0.0034    2.2963 O   0  0  0  0  0  2           0  0  0
   -0.6719   -0.0000    1.1718 N   0  0  0  0  0  3           0  0  0
   -0.6184    0.0023   -1.2040 N   0  0  0  0  0  3           0  0  0
    4.9393    1.5929   -5.1720 N   0  0  0  0  0  3           0  0  0
   -4.1065   -0.0115   -0.1029 N   0  0  0  0  0  3           0  0  0
    1.4051    0.0000    0.0000 N   0  0  0  0  0  3           0  0  0
   -2.5800   -0.0108   -2.5038 N   0  0  0  0  0  3           0  0  0
    4.2059    0.0440   -3.1328 C   0  0  0  0  0  4           0  0  0
   -2.0230   -0.0047    1.1153 C   0  0  0  0  0  4           0  0  0
    0.0000    0.0000    0.0000 C   0  0  0  0  0  4           0  0  0
   -1.9745    0.0165   -1.2480 C   0  0  0  0  0  4           0  0  0
   -2.7354   -0.0116   -0.0796 C   0  0  0  0  0  4           0  0  0
    2.3178    0.0000   -1.0576 C   0  0  0  0  0  4           0  0  0
    2.9731   -0.5697   -3.3368 C   0  0  0  0  0  4           0  0  0
    4.5100    0.6442   -1.9136 C   0  0  0  0  0  4           0  0  0
    2.0361   -0.5916   -2.2995 C   0  0  0  0  0  4           0  0  0
    3.5680    0.6165   -0.8833 C   0  0  0  0  0  4           0  0  0
   -1.9502    0.0030    3.4778 C   0  0  0  0  0  4           0  0  0
   -2.8776    0.0037    4.6793 C   0  0  0  0  0  4           0  0  0
  1  2  2  0     0  0
  1  3  2  0     0  0
  1  8  1  0     0  0
  1 12  1  0     0  0
  4  9  2  0     0  0
  5 13  1  0     0  0
  5 22  1  0     0  0
  6 13  2  0     0  0
  6 14  1  0     0  0
  7 14  2  0     0  0
  7 15  1  0     0  0
  9 16  1  0     0  0
 10 14  1  0     0  0
 10 17  1  0     0  0
 11 15  1  0     0  0
 12 18  2  0     0  0
 12 19  1  0     0  0
 13 16  1  0     0  0
 15 16  2  0     0  0
 17 20  2  0     0  0
 17 21  1  0     0  0
 18 20  1  0     0  0
 19 21  2  0     0  0
 22 23  1  0     0  0
M  END
> <Compound >
4

> <standard_type>
pIC50

> <# Confs.>
25

> <canonical_smiles>
CCOC1=NC(NC2=CC=C(S(=O)(N)=O)C=C2)=NC(N)=C1N=O

> <standard_relation>
=

> <predicted_activity_value>
6.953114809162289

> <actual_activity_value>
7.031517051446065

> <Publication ID>
nan

> <standard_units>
nM

> hash
3817718728431901872

$$$$
3
XXILIB    08252103513D 0   0.00000     0.00000

 23 24  0     1  0            999 V2000
    5.3820    0.1157   -4.4452 S   0  0  2  0  0  6           0  0  0
    4.6499    0.0166   -5.6927 O   0  0  0  0  0  2           0  0  0
    6.2595    1.2400   -4.1844 O   0  0  0  0  0  2           0  0  0
   -4.5465    0.5575   -1.1095 O   0  0  0  0  0  2           0  0  0
   -2.7511   -0.0034    2.2963 O   0  0  0  0  0  2           0  0  0
   -0.6719   -0.0000    1.1718 N   0  0  0  0  0  3           0  0  0
   -0.6184    0.0023   -1.2040 N   0  0  0  0  0  3           0  0  0
    6.2324   -1.3367   -4.1731 N   0  0  0  0  0  3           0  0  0
   -4.1065   -0.0115   -0.1029 N   0  0  0  0  0  3           0  0  0
    1.4051    0.0000    0.0000 N   0  0  0  0  0  3           0  0  0
   -2.5800   -0.0108   -2.5038 N   0  0  0  0  0  3           0  0  0
    4.2059    0.0440   -3.1328 C   0  0  0  0  0  4           0  0  0
   -2.0230   -0.0047    1.1153 C   0  0  0  0  0  4           0  0  0
    0.0000    0.0000    0.0000 C   0  0  0  0  0  4           0  0  0
   -1.9745    0.0165   -1.2480 C   0  0  0  0  0  4           0  0  0
   -2.7354   -0.0116   -0.0796 C   0  0  0  0  0  4           0  0  0
    2.3178    0.0000   -1.0576 C   0  0  0  0  0  4           0  0  0
    2.9731   -0.5697   -3.3368 C   0  0  0  0  0  4           0  0  0
    4.5100    0.6442   -1.9136 C   0  0  0  0  0  4           0  0  0
    2.0361   -0.5916   -2.2995 C   0  0  0  0  0  4           0  0  0
    3.5680    0.6165   -0.8833 C   0  0  0  0  0  4           0  0  0
   -1.9502    0.0030    3.4778 C   0  0  0  0  0  4           0  0  0
   -2.8776    0.0037    4.6793 C   0  0  0  0  0  4           0  0  0
  1  2  2  0     0  0
  1  3  2  0     0  0
  1  8  1  0     0  0
  1 12  1  0     0  0
  4  9  2  0     0  0
  5 13  1  0     0  0
  5 22  1  0     0  0
  6 13  2  0     0  0
  6 14  1  0     0  0
  7 14  2  0     0  0
  7 15  1  0     0  0
  9 16  1  0     0  0
 10 14  1  0     0  0
 10 17  1  0     0  0
 11 15  1  0     0  0
 12 18  2  0     0  0
 12 19  1  0     0  0
 13 16  1  0     0  0
 15 16  2  0     0  0
 17 20  2  0     0  0
 17 21  1  0     0  0
 18 20  1  0     0  0
 19 21  2  0     0  0
 22 23  1  0     0  0
M  END
> <Compound >
4

> <standard_type>
pIC50

> <# Confs.>
25

> <canonical_smiles>
CCOC1=NC(NC2=CC=C(S(=O)(N)=O)C=C2)=NC(N)=C1N=O

> <standard_relation>
=

> <predicted_activity_value>
6.953114809162289

> <actual_activity_value>
7.031517051446065

> <Publication ID>
nan

> <standard_units>
nM

> hash
3817718728431901872

$$$$
3
XXILIB    08252103513D 0   0.00000     0.00000

 23 24  0     1  0            999 V2000
    5.4175   -0.0346   -4.4146 S   0  0  2  0  0  6           0  0  0
    5.1387    1.1017   -5.2708 O   0  0  0  0  0  2           0  0  0
    6.7162   -0.1953   -3.7904 O   0  0  0  0  0  2           0  0  0
   -4.5465    0.5575   -1.1095 O   0  0  0  0  0  2           0  0  0
   -2.7511   -0.0034    2.2963 O   0  0  0  0  0  2           0  0  0
   -0.6719   -0.0000    1.1718 N   0  0  0  0  0  3           0  0  0
   -0.6184    0.0023   -1.2040 N   0  0  0  0  0  3           0  0  0
    5.0046   -1.4722   -5.2326 N   0  0  0  0  0  3           0  0  0
   -4.1065   -0.0115   -0.1029 N   0  0  0  0  0  3           0  0  0
    1.4051   -0.0000   -0.0000 N   0  0  0  0  0  3           0  0  0
   -2.5800   -0.0108   -2.5038 N   0  0  0  0  0  3           0  0  0
    4.2069   -0.0418   -3.1320 C   0  0  0  0  0  4           0  0  0
   -2.0230   -0.0047    1.1153 C   0  0  0  0  0  4           0  0  0
    0.0000    0.0000    0.0000 C   0  0  0  0  0  4           0  0  0
   -1.9745    0.0165   -1.2480 C   0  0  0  0  0  4           0  0  0
   -2.7354   -0.0116   -0.0796 C   0  0  0  0  0  4           0  0  0
    2.3178    0.0000   -1.0576 C   0  0  0  0  0  4           0  0  0
    2.9754    0.5751   -3.3347 C   0  0  0  0  0  4           0  0  0
    4.5158   -0.6310   -1.9086 C   0  0  0  0  0  4           0  0  0
    2.0361    0.5916   -2.2995 C   0  0  0  0  0  4           0  0  0
    3.5708   -0.6101   -0.8809 C   0  0  0  0  0  4           0  0  0
   -1.9502    0.0030    3.4778 C   0  0  0  0  0  4           0  0  0
   -2.8776    0.0037    4.6793 C   0  0  0  0  0  4           0  0  0
  1  2  2  0     0  0
  1  3  2  0     0  0
  1  8  1  0     0  0
  1 12  1  0     0  0
  4  9  2  0     0  0
  5 13  1  0     0  0
  5 22  1  0     0  0
  6 13  2  0     0  0
  6 14  1  0     0  0
  7 14  2  0     0  0
  7 15  1  0     0  0
  9 16  1  0     0  0
 10 14  1  0     0  0
 10 17  1  0     0  0
 11 15  1  0     0  0
 12 18  2  0     0  0
 12 19  1  0     0  0
 13 16  1  0     0  0
 15 16  2  0     0  0
 17 20  2  0     0  0
 17 21  1  0     0  0
 18 20  1  0     0  0
 19 21  2  0     0  0
 22 23  1  0     0  0
M  END
> <Compound >
4

> <standard_type>
pIC50

> <# Confs.>
25

> <canonical_smiles>
CCOC1=NC(NC2=CC=C(S(=O)(N)=O)C=C2)=NC(N)=C1N=O

> <standard_relation>
=

> <predicted_activity_value>
6.953114809162289

> <actual_activity_value>
7.031517051446065

> <Publication ID>
nan

> <standard_units>
nM

> hash
3817718728431901872

$$$$
3
XXILIB    08252103513D 0   0.00000     0.00000

 23 24  0     1  0            999 V2000
    5.4175   -0.0346   -4.4146 S   0  0  2  0  0  6           0  0  0
    6.2947   -1.1674   -4.1924 O   0  0  0  0  0  2           0  0  0
    4.7185    0.1297   -5.6742 O   0  0  0  0  0  2           0  0  0
   -4.5465    0.5575   -1.1095 O   0  0  0  0  0  2           0  0  0
   -2.7511   -0.0034    2.2963 O   0  0  0  0  0  2           0  0  0
   -0.6719   -0.0000    1.1718 N   0  0  0  0  0  3           0  0  0
   -0.6184    0.0023   -1.2040 N   0  0  0  0  0  3           0  0  0
    6.2499    1.4055   -4.0410 N   0  0  0  0  0  3           0  0  0
   -4.1065   -0.0115   -0.1029 N   0  0  0  0  0  3           0  0  0
    1.4051   -0.0000   -0.0000 N   0  0  0  0  0  3           0  0  0
   -2.5800   -0.0108   -2.5038 N   0  0  0  0  0  3           0  0  0
    4.2069   -0.0418   -3.1320 C   0  0  0  0  0  4           0  0  0
   -2.0230   -0.0047    1.1153 C   0  0  0  0  0  4           0  0  0
    0.0000    0.0000    0.0000 C   0  0  0  0  0  4           0  0  0
   -1.9745    0.0165   -1.2480 C   0  0  0  0  0  4           0  0  0
   -2.7354   -0.0116   -0.0796 C   0  0  0  0  0  4           0  0  0
    2.3178    0.0000   -1.0576 C   0  0  0  0  0  4           0  0  0
    2.9754    0.5751   -3.3347 C   0  0  0  0  0  4           0  0  0
    4.5158   -0.6310   -1.9086 C   0  0  0  0  0  4           0  0  0
    2.0361    0.5916   -2.2995 C   0  0  0  0  0  4           0  0  0
    3.5708   -0.6101   -0.8809 C   0  0  0  0  0  4           0  0  0
   -1.9502    0.0030    3.4778 C   0  0  0  0  0  4           0  0  0
   -2.8776    0.0037    4.6793 C   0  0  0  0  0  4           0  0  0
  1  2  2  0     0  0
  1  3  2  0     0  0
  1  8  1  0     0  0
  1 12  1  0     0  0
  4  9  2  0     0  0
  5 13  1  0     0  0
  5 22  1  0     0  0
  6 13  2  0     0  0
  6 14  1  0     0  0
  7 14  2  0     0  0
  7 15  1  0     0  0
  9 16  1  0     0  0
 10 14  1  0     0  0
 10 17  1  0     0  0
 11 15  1  0     0  0
 12 18  2  0     0  0
 12 19  1  0     0  0
 13 16  1  0     0  0
 15 16  2  0     0  0
 17 20  2  0     0  0
 17 21  1  0     0  0
 18 20  1  0     0  0
 19 21  2  0     0  0
 22 23  1  0     0  0
M  END
> <Compound >
4

> <standard_type>
pIC50

> <# Confs.>
25

> <canonical_smiles>
CCOC1=NC(NC2=CC=C(S(=O)(N)=O)C=C2)=NC(N)=C1N=O

> <standard_relation>
=

> <predicted_activity_value>
6.953114809162289

> <actual_activity_value>
7.031517051446065

> <Publication ID>
nan

> <standard_units>
nM

> hash
3817718728431901872

$$$$
3
XXILIB    08252103513D 0   0.00000     0.00000

 23 24  0     1  0            999 V2000
    5.4150   -0.0468    4.4167 S   0  0  2  0  0  6           0  0  0
    4.7842   -0.6457    5.5767 O   0  0  0  0  0  2           0  0  0
    6.6335   -0.6032    3.8617 O   0  0  0  0  0  2           0  0  0
   -4.5803    0.5692    0.8815 O   0  0  0  0  0  2           0  0  0
   -2.7511   -0.0034    2.2963 O   0  0  0  0  0  2           0  0  0
   -0.6719   -0.0000    1.1718 N   0  0  0  0  0  3           0  0  0
   -0.6184    0.0023   -1.2040 N   0  0  0  0  0  3           0  0  0
    5.6322    1.6217    4.6910 N   0  0  0  0  0  3           0  0  0
   -4.1065   -0.0115   -0.1029 N   0  0  0  0  0  3           0  0  0
    1.4051    0.0000    0.0000 N   0  0  0  0  0  3           0  0  0
   -2.5800   -0.0108   -2.5038 N   0  0  0  0  0  3           0  0  0
    4.2151   -0.0013    3.1249 C   0  0  0  0  0  4           0  0  0
   -2.0230   -0.0047    1.1153 C   0  0  0  0  0  4           0  0  0
    0.0000    0.0000    0.0000 C   0  0  0  0  0  4           0  0  0
   -1.9745    0.0165   -1.2480 C   0  0  0  0  0  4           0  0  0
   -2.7354   -0.0116   -0.0796 C   0  0  0  0  0  4           0  0  0
    2.3178    0.0000    1.0576 C   0  0  0  0  0  4           0  0  0
    2.8581   -0.0031    3.4359 C   0  0  0  0  0  4           0  0  0
    4.6422   -0.0076    1.7995 C   0  0  0  0  0  4           0  0  0
    1.9161    0.0000    2.4031 C   0  0  0  0  0  4           0  0  0
    3.6938   -0.0037    0.7747 C   0  0  0  0  0  4           0  0  0
   -1.9502    0.0030    3.4778 C   0  0  0  0  0  4           0  0  0
   -2.8776    0.0037    4.6793 C   0  0  0  0  0  4           0  0  0
  1  2  2  0     0  0
  1  3  2  0     0  0
  1  8  1  0     0  0
  1 12  1  0     0  0
  4  9  2  0     0  0
  5 13  1  0     0  0
  5 22  1  0     0  0
  6 13  2  0     0  0
  6 14  1  0     0  0
  7 14  2  0     0  0
  7 15  1  0     0  0
  9 16  1  0     0  0
 10 14  1  0     0  0
 10 17  1  0     0  0
 11 15  1  0     0  0
 12 18  2  0     0  0
 12 19  1  0     0  0
 13 16  1  0     0  0
 15 16  2  0     0  0
 17 20  2  0     0  0
 17 21  1  0     0  0
 18 20  1  0     0  0
 19 21  2  0     0  0
 22 23  1  0     0  0
M  END
> <Compound >
4

> <standard_type>
pIC50

> <# Confs.>
25

> <canonical_smiles>
CCOC1=NC(NC2=CC=C(S(=O)(N)=O)C=C2)=NC(N)=C1N=O

> <standard_relation>
=

> <predicted_activity_value>
6.953114809162289

> <actual_activity_value>
7.031517051446065

> <Publication ID>
nan

> <standard_units>
nM

> hash
3817718728431901872

$$$$
3
XXILIB    08252103513D 0   0.00000     0.00000

 23 24  0     1  0            999 V2000
    5.4150   -0.0468    4.4167 S   0  0  2  0  0  6           0  0  0
    6.6390    0.5296    3.8953 O   0  0  0  0  0  2           0  0  0
    4.7910    0.4870    5.6116 O   0  0  0  0  0  2           0  0  0
   -4.5803    0.5692    0.8815 O   0  0  0  0  0  2           0  0  0
   -2.7511   -0.0034    2.2963 O   0  0  0  0  0  2           0  0  0
   -0.6719   -0.0000    1.1718 N   0  0  0  0  0  3           0  0  0
   -0.6184    0.0023   -1.2040 N   0  0  0  0  0  3           0  0  0
    5.6136   -1.7312    4.5901 N   0  0  0  0  0  3           0  0  0
   -4.1065   -0.0115   -0.1029 N   0  0  0  0  0  3           0  0  0
    1.4051    0.0000    0.0000 N   0  0  0  0  0  3           0  0  0
   -2.5800   -0.0108   -2.5038 N   0  0  0  0  0  3           0  0  0
    4.2151   -0.0013    3.1249 C   0  0  0  0  0  4           0  0  0
   -2.0230   -0.0047    1.1153 C   0  0  0  0  0  4           0  0  0
    0.0000    0.0000    0.0000 C   0  0  0  0  0  4           0  0  0
   -1.9745    0.0165   -1.2480 C   0  0  0  0  0  4           0  0  0
   -2.7354   -0.0116   -0.0796 C   0  0  0  0  0  4           0  0  0
    2.3178    0.0000    1.0576 C   0  0  0  0  0  4           0  0  0
    2.8581   -0.0031    3.4359 C   0  0  0  0  0  4           0  0  0
    4.6422   -0.0076    1.7995 C   0  0  0  0  0  4           0  0  0
    1.9161    0.0000    2.4031 C   0  0  0  0  0  4           0  0  0
    3.6938   -0.0037    0.7747 C   0  0  0  0  0  4           0  0  0
   -1.9502    0.0030    3.4778 C   0  0  0  0  0  4           0  0  0
   -2.8776    0.0037    4.6793 C   0  0  0  0  0  4           0  0  0
  1  2  2  0     0  0
  1  3  2  0     0  0
  1  8  1  0     0  0
  1 12  1  0     0  0
  4  9  2  0     0  0
  5 13  1  0     0  0
  5 22  1  0     0  0
  6 13  2  0     0  0
  6 14  1  0     0  0
  7 14  2  0     0  0
  7 15  1  0     0  0
  9 16  1  0     0  0
 10 14  1  0     0  0
 10 17  1  0     0  0
 11 15  1  0     0  0
 12 18  2  0     0  0
 12 19  1  0     0  0
 13 16  1  0     0  0
 15 16  2  0     0  0
 17 20  2  0     0  0
 17 21  1  0     0  0
 18 20  1  0     0  0
 19 21  2  0     0  0
 22 23  1  0     0  0
M  END
> <Compound >
4

> <standard_type>
pIC50

> <# Confs.>
25

> <canonical_smiles>
CCOC1=NC(NC2=CC=C(S(=O)(N)=O)C=C2)=NC(N)=C1N=O

> <standard_relation>
=

> <predicted_activity_value>
6.953114809162289

> <actual_activity_value>
7.031517051446065

> <Publication ID>
nan

> <standard_units>
nM

> hash
3817718728431901872

$$$$
3
XXILIB    08252103513D 0   0.00000     0.00000

 23 24  0     1  0            999 V2000
    5.4150   -2.2489    3.8016 S   0  0  2  0  0  6           0  0  0
    6.6390   -1.4891    3.6382 O   0  0  0  0  0  2           0  0  0
    4.7910   -2.3841    5.1033 O   0  0  0  0  0  2           0  0  0
   -4.5467   -0.5922   -1.1028 O   0  0  0  0  0  2           0  0  0
   -2.7511   -0.0034    2.2963 O   0  0  0  0  0  2           0  0  0
   -0.6719   -0.0000    1.1718 N   0  0  0  0  0  3           0  0  0
   -0.6184    0.0023   -1.2040 N   0  0  0  0  0  3           0  0  0
    5.6136   -3.7943    3.1096 N   0  0  0  0  0  3           0  0  0
   -4.1065   -0.0115   -0.1029 N   0  0  0  0  0  3           0  0  0
    1.4051    0.0000    0.0000 N   0  0  0  0  0  3           0  0  0
   -2.5800   -0.0108   -2.5038 N   0  0  0  0  0  3           0  0  0
    4.2151   -1.5636    2.7056 C   0  0  0  0  0  4           0  0  0
   -2.0230   -0.0047    1.1153 C   0  0  0  0  0  4           0  0  0
    0.0000    0.0000    0.0000 C   0  0  0  0  0  4           0  0  0
   -1.9745    0.0165   -1.2480 C   0  0  0  0  0  4           0  0  0
   -2.7354   -0.0116   -0.0796 C   0  0  0  0  0  4           0  0  0
    2.3178   -0.5288    0.9159 C   0  0  0  0  0  4           0  0  0
    2.8581   -1.7207    2.9741 C   0  0  0  0  0  4           0  0  0
    4.6422   -0.9063    1.5546 C   0  0  0  0  0  4           0  0  0
    1.9161   -1.2015    2.0811 C   0  0  0  0  0  4           0  0  0
    3.6938   -0.3905    0.6691 C   0  0  0  0  0  4           0  0  0
   -1.9502    0.0030    3.4778 C   0  0  0  0  0  4           0  0  0
   -2.8776    0.0037    4.6793 C   0  0  0  0  0  4           0  0  0
  1  2  2  0     0  0
  1  3  2  0     0  0
  1  8  1  0     0  0
  1 12  1  0     0  0
  4  9  2  0     0  0
  5 13  1  0     0  0
  5 22  1  0     0  0
  6 13  2  0     0  0
  6 14  1  0     0  0
  7 14  2  0     0  0
  7 15  1  0     0  0
  9 16  1  0     0  0
 10 14  1  0     0  0
 10 17  1  0     0  0
 11 15  1  0     0  0
 12 18  2  0     0  0
 12 19  1  0     0  0
 13 16  1  0     0  0
 15 16  2  0     0  0
 17 20  2  0     0  0
 17 21  1  0     0  0
 18 20  1  0     0  0
 19 21  2  0     0  0
 22 23  1  0     0  0
M  END
> <Compound >
4

> <standard_type>
pIC50

> <# Confs.>
25

> <canonical_smiles>
CCOC1=NC(NC2=CC=C(S(=O)(N)=O)C=C2)=NC(N)=C1N=O

> <standard_relation>
=

> <predicted_activity_value>
6.953114809162289

> <actual_activity_value>
7.031517051446065

> <Publication ID>
nan

> <standard_units>
nM

> hash
3817718728431901872

$$$$
3
XXILIB    08252103513D 0   0.00000     0.00000

 23 24  0     1  0            999 V2000
    5.4150   -2.2489    3.8016 S   0  0  2  0  0  6           0  0  0
    4.7842   -3.3476    4.5067 O   0  0  0  0  0  2           0  0  0
    6.6335   -2.4532    3.0428 O   0  0  0  0  0  2           0  0  0
   -4.5467   -0.5922   -1.1028 O   0  0  0  0  0  2           0  0  0
   -2.7511   -0.0034    2.2963 O   0  0  0  0  0  2           0  0  0
   -0.6719   -0.0000    1.1718 N   0  0  0  0  0  3           0  0  0
   -0.6184    0.0023   -1.2040 N   0  0  0  0  0  3           0  0  0
    5.6322   -0.9410    4.8734 N   0  0  0  0  0  3           0  0  0
   -4.1065   -0.0115   -0.1029 N   0  0  0  0  0  3           0  0  0
    1.4051    0.0000    0.0000 N   0  0  0  0  0  3           0  0  0
   -2.5800   -0.0108   -2.5038 N   0  0  0  0  0  3           0  0  0
    4.2151   -1.5636    2.7056 C   0  0  0  0  0  4           0  0  0
   -2.0230   -0.0047    1.1153 C   0  0  0  0  0  4           0  0  0
    0.0000    0.0000    0.0000 C   0  0  0  0  0  4           0  0  0
   -1.9745    0.0165   -1.2480 C   0  0  0  0  0  4           0  0  0
   -2.7354   -0.0116   -0.0796 C   0  0  0  0  0  4           0  0  0
    2.3178   -0.5288    0.9159 C   0  0  0  0  0  4           0  0  0
    2.8581   -1.7207    2.9741 C   0  0  0  0  0  4           0  0  0
    4.6422   -0.9063    1.5546 C   0  0  0  0  0  4           0  0  0
    1.9161   -1.2015    2.0811 C   0  0  0  0  0  4           0  0  0
    3.6938   -0.3905    0.6691 C   0  0  0  0  0  4           0  0  0
   -1.9502    0.0030    3.4778 C   0  0  0  0  0  4           0  0  0
   -2.8776    0.0037    4.6793 C   0  0  0  0  0  4           0  0  0
  1  2  2  0     0  0
  1  3  2  0     0  0
  1  8  1  0     0  0
  1 12  1  0     0  0
  4  9  2  0     0  0
  5 13  1  0     0  0
  5 22  1  0     0  0
  6 13  2  0     0  0
  6 14  1  0     0  0
  7 14  2  0     0  0
  7 15  1  0     0  0
  9 16  1  0     0  0
 10 14  1  0     0  0
 10 17  1  0     0  0
 11 15  1  0     0  0
 12 18  2  0     0  0
 12 19  1  0     0  0
 13 16  1  0     0  0
 15 16  2  0     0  0
 17 20  2  0     0  0
 17 21  1  0     0  0
 18 20  1  0     0  0
 19 21  2  0     0  0
 22 23  1  0     0  0
M  END
> <Compound >
4

> <standard_type>
pIC50

> <# Confs.>
25

> <canonical_smiles>
CCOC1=NC(NC2=CC=C(S(=O)(N)=O)C=C2)=NC(N)=C1N=O

> <standard_relation>
=

> <predicted_activity_value>
6.953114809162289

> <actual_activity_value>
7.031517051446065

> <Publication ID>
nan

> <standard_units>
nM

> hash
3817718728431901872

$$$$
3
XXILIB    08252103513D 0   0.00000     0.00000

 23 24  0     1  0            999 V2000
    5.4175    0.0346    4.4146 S   0  0  2  0  0  6           0  0  0
    5.1387   -1.1017    5.2708 O   0  0  0  0  0  2           0  0  0
    6.7162    0.1953    3.7904 O   0  0  0  0  0  2           0  0  0
   -4.5805   -0.5805    0.8883 O   0  0  0  0  0  2           0  0  0
   -2.7511   -0.0034    2.2963 O   0  0  0  0  0  2           0  0  0
   -0.6719   -0.0000    1.1718 N   0  0  0  0  0  3           0  0  0
   -0.6184    0.0023   -1.2040 N   0  0  0  0  0  3           0  0  0
    5.0046    1.4722    5.2326 N   0  0  0  0  0  3           0  0  0
   -4.1065   -0.0115   -0.1029 N   0  0  0  0  0  3           0  0  0
    1.4051    0.0000    0.0000 N   0  0  0  0  0  3           0  0  0
   -2.5800   -0.0108   -2.5038 N   0  0  0  0  0  3           0  0  0
    4.2069    0.0418    3.1320 C   0  0  0  0  0  4           0  0  0
   -2.0230   -0.0047    1.1153 C   0  0  0  0  0  4           0  0  0
    0.0000    0.0000    0.0000 C   0  0  0  0  0  4           0  0  0
   -1.9745    0.0165   -1.2480 C   0  0  0  0  0  4           0  0  0
   -2.7354   -0.0116   -0.0796 C   0  0  0  0  0  4           0  0  0
    2.3178    0.0000    1.0576 C   0  0  0  0  0  4           0  0  0
    2.9754   -0.5751    3.3347 C   0  0  0  0  0  4           0  0  0
    4.5158    0.6310    1.9086 C   0  0  0  0  0  4           0  0  0
    2.0361   -0.5916    2.2995 C   0  0  0  0  0  4           0  0  0
    3.5708    0.6101    0.8809 C   0  0  0  0  0  4           0  0  0
   -2.1008    0.6531    3.3842 C   0  0  0  0  0  4           0  0  0
   -3.1680    1.2370    4.2920 C   0  0  0  0  0  4           0  0  0
  1  2  2  0     0  0
  1  3  2  0     0  0
  1  8  1  0     0  0
  1 12  1  0     0  0
  4  9  2  0     0  0
  5 13  1  0     0  0
  5 22  1  0     0  0
  6 13  2  0     0  0
  6 14  1  0     0  0
  7 14  2  0     0  0
  7 15  1  0     0  0
  9 16  1  0     0  0
 10 14  1  0     0  0
 10 17  1  0     0  0
 11 15  1  0     0  0
 12 18  2  0     0  0
 12 19  1  0     0  0
 13 16  1  0     0  0
 15 16  2  0     0  0
 17 20  2  0     0  0
 17 21  1  0     0  0
 18 20  1  0     0  0
 19 21  2  0     0  0
 22 23  1  0     0  0
M  END
> <Compound >
4

> <standard_type>
pIC50

> <# Confs.>
25

> <canonical_smiles>
CCOC1=NC(NC2=CC=C(S(=O)(N)=O)C=C2)=NC(N)=C1N=O

> <standard_relation>
=

> <predicted_activity_value>
6.953114809162289

> <actual_activity_value>
7.031517051446065

> <Publication ID>
nan

> <standard_units>
nM

> hash
3817718728431901872

$$$$
3
XXILIB    08252103513D 0   0.00000     0.00000

 23 24  0     1  0            999 V2000
    5.4175    0.0346    4.4146 S   0  0  2  0  0  6           0  0  0
    6.2947    1.1674    4.1924 O   0  0  0  0  0  2           0  0  0
    4.7185   -0.1297    5.6742 O   0  0  0  0  0  2           0  0  0
   -4.5805   -0.5805    0.8883 O   0  0  0  0  0  2           0  0  0
   -2.7511   -0.0034    2.2963 O   0  0  0  0  0  2           0  0  0
   -0.6719   -0.0000    1.1718 N   0  0  0  0  0  3           0  0  0
   -0.6184    0.0023   -1.2040 N   0  0  0  0  0  3           0  0  0
    6.2499   -1.4055    4.0410 N   0  0  0  0  0  3           0  0  0
   -4.1065   -0.0115   -0.1029 N   0  0  0  0  0  3           0  0  0
    1.4051    0.0000    0.0000 N   0  0  0  0  0  3           0  0  0
   -2.5800   -0.0108   -2.5038 N   0  0  0  0  0  3           0  0  0
    4.2069    0.0418    3.1320 C   0  0  0  0  0  4           0  0  0
   -2.0230   -0.0047    1.1153 C   0  0  0  0  0  4           0  0  0
    0.0000    0.0000    0.0000 C   0  0  0  0  0  4           0  0  0
   -1.9745    0.0165   -1.2480 C   0  0  0  0  0  4           0  0  0
   -2.7354   -0.0116   -0.0796 C   0  0  0  0  0  4           0  0  0
    2.3178    0.0000    1.0576 C   0  0  0  0  0  4           0  0  0
    2.9754   -0.5751    3.3347 C   0  0  0  0  0  4           0  0  0
    4.5158    0.6310    1.9086 C   0  0  0  0  0  4           0  0  0
    2.0361   -0.5916    2.2995 C   0  0  0  0  0  4           0  0  0
    3.5708    0.6101    0.8809 C   0  0  0  0  0  4           0  0  0
   -2.1008    0.6531    3.3842 C   0  0  0  0  0  4           0  0  0
   -3.1680    1.2370    4.2920 C   0  0  0  0  0  4           0  0  0
  1  2  2  0     0  0
  1  3  2  0     0  0
  1  8  1  0     0  0
  1 12  1  0     0  0
  4  9  2  0     0  0
  5 13  1  0     0  0
  5 22  1  0     0  0
  6 13  2  0     0  0
  6 14  1  0     0  0
  7 14  2  0     0  0
  7 15  1  0     0  0
  9 16  1  0     0  0
 10 14  1  0     0  0
 10 17  1  0     0  0
 11 15  1  0     0  0
 12 18  2  0     0  0
 12 19  1  0     0  0
 13 16  1  0     0  0
 15 16  2  0     0  0
 17 20  2  0     0  0
 17 21  1  0     0  0
 18 20  1  0     0  0
 19 21  2  0     0  0
 22 23  1  0     0  0
M  END
> <Compound >
4

> <standard_type>
pIC50

> <# Confs.>
25

> <canonical_smiles>
CCOC1=NC(NC2=CC=C(S(=O)(N)=O)C=C2)=NC(N)=C1N=O

> <standard_relation>
=

> <predicted_activity_value>
6.953114809162289

> <actual_activity_value>
7.031517051446065

> <Publication ID>
nan

> <standard_units>
nM

> hash
3817718728431901872

$$$$
3
XXILIB    08252103513D 0   0.00000     0.00000

 23 24  0     1  0            999 V2000
    5.4150    2.1678    3.8484 S   0  0  2  0  0  6           0  0  0
    4.7842    2.2292    5.1525 O   0  0  0  0  0  2           0  0  0
    6.6335    1.4085    3.6460 O   0  0  0  0  0  2           0  0  0
   -4.5465    0.5575   -1.1095 O   0  0  0  0  0  2           0  0  0
   -2.7511   -0.0034    2.2963 O   0  0  0  0  0  2           0  0  0
   -0.6719   -0.0000    1.1718 N   0  0  0  0  0  3           0  0  0
   -0.6184    0.0023   -1.2040 N   0  0  0  0  0  3           0  0  0
    5.6322    3.7500    3.2517 N   0  0  0  0  0  3           0  0  0
   -4.1065   -0.0115   -0.1029 N   0  0  0  0  0  3           0  0  0
    1.4051    0.0000   -0.0000 N   0  0  0  0  0  3           0  0  0
   -2.5800   -0.0108   -2.5038 N   0  0  0  0  0  3           0  0  0
    4.2151    1.5614    2.7069 C   0  0  0  0  0  4           0  0  0
   -2.0230   -0.0047    1.1153 C   0  0  0  0  0  4           0  0  0
    0.0000    0.0000    0.0000 C   0  0  0  0  0  4           0  0  0
   -1.9745    0.0165   -1.2480 C   0  0  0  0  0  4           0  0  0
   -2.7354   -0.0116   -0.0796 C   0  0  0  0  0  4           0  0  0
    2.3178    0.5288    0.9159 C   0  0  0  0  0  4           0  0  0
    2.8581    1.7153    2.9772 C   0  0  0  0  0  4           0  0  0
    4.6422    0.8931    1.5622 C   0  0  0  0  0  4           0  0  0
    1.9161    1.2015    2.0811 C   0  0  0  0  0  4           0  0  0
    3.6938    0.3842    0.6728 C   0  0  0  0  0  4           0  0  0
   -2.0965   -0.6487    3.3883 C   0  0  0  0  0  4           0  0  0
   -3.1599   -1.2339    4.2997 C   0  0  0  0  0  4           0  0  0
  1  2  2  0     0  0
  1  3  2  0     0  0
  1  8  1  0     0  0
  1 12  1  0     0  0
  4  9  2  0     0  0
  5 13  1  0     0  0
  5 22  1  0     0  0
  6 13  2  0     0  0
  6 14  1  0     0  0
  7 14  2  0     0  0
  7 15  1  0     0  0
  9 16  1  0     0  0
 10 14  1  0     0  0
 10 17  1  0     0  0
 11 15  1  0     0  0
 12 18  2  0     0  0
 12 19  1  0     0  0
 13 16  1  0     0  0
 15 16  2  0     0  0
 17 20  2  0     0  0
 17 21  1  0     0  0
 18 20  1  0     0  0
 19 21  2  0     0  0
 22 23  1  0     0  0
M  END
> <Compound >
4

> <standard_type>
pIC50

> <# Confs.>
25

> <canonical_smiles>
CCOC1=NC(NC2=CC=C(S(=O)(N)=O)C=C2)=NC(N)=C1N=O

> <standard_relation>
=

> <predicted_activity_value>
6.953114809162289

> <actual_activity_value>
7.031517051446065

> <Publication ID>
nan

> <standard_units>
nM

> hash
3817718728431901872

$$$$
3
XXILIB    08252103513D 0   0.00000     0.00000

 23 24  0     1  0            999 V2000
    5.4150    2.1678    3.8484 S   0  0  2  0  0  6           0  0  0
    6.6390    2.4063    3.1087 O   0  0  0  0  0  2           0  0  0
    4.7910    3.2275    4.6163 O   0  0  0  0  0  2           0  0  0
   -4.5465    0.5575   -1.1095 O   0  0  0  0  0  2           0  0  0
   -2.7511   -0.0034    2.2963 O   0  0  0  0  0  2           0  0  0
   -0.6719   -0.0000    1.1718 N   0  0  0  0  0  3           0  0  0
   -0.6184    0.0023   -1.2040 N   0  0  0  0  0  3           0  0  0
    5.6136    0.7958    4.8407 N   0  0  0  0  0  3           0  0  0
   -4.1065   -0.0115   -0.1029 N   0  0  0  0  0  3           0  0  0
    1.4051    0.0000   -0.0000 N   0  0  0  0  0  3           0  0  0
   -2.5800   -0.0108   -2.5038 N   0  0  0  0  0  3           0  0  0
    4.2151    1.5614    2.7069 C   0  0  0  0  0  4           0  0  0
   -2.0230   -0.0047    1.1153 C   0  0  0  0  0  4           0  0  0
    0.0000    0.0000    0.0000 C   0  0  0  0  0  4           0  0  0
   -1.9745    0.0165   -1.2480 C   0  0  0  0  0  4           0  0  0
   -2.7354   -0.0116   -0.0796 C   0  0  0  0  0  4           0  0  0
    2.3178    0.5288    0.9159 C   0  0  0  0  0  4           0  0  0
    2.8581    1.7153    2.9772 C   0  0  0  0  0  4           0  0  0
    4.6422    0.8931    1.5622 C   0  0  0  0  0  4           0  0  0
    1.9161    1.2015    2.0811 C   0  0  0  0  0  4           0  0  0
    3.6938    0.3842    0.6728 C   0  0  0  0  0  4           0  0  0
   -2.0965   -0.6487    3.3883 C   0  0  0  0  0  4           0  0  0
   -3.1599   -1.2339    4.2997 C   0  0  0  0  0  4           0  0  0
  1  2  2  0     0  0
  1  3  2  0     0  0
  1  8  1  0     0  0
  1 12  1  0     0  0
  4  9  2  0     0  0
  5 13  1  0     0  0
  5 22  1  0     0  0
  6 13  2  0     0  0
  6 14  1  0     0  0
  7 14  2  0     0  0
  7 15  1  0     0  0
  9 16  1  0     0  0
 10 14  1  0     0  0
 10 17  1  0     0  0
 11 15  1  0     0  0
 12 18  2  0     0  0
 12 19  1  0     0  0
 13 16  1  0     0  0
 15 16  2  0     0  0
 17 20  2  0     0  0
 17 21  1  0     0  0
 18 20  1  0     0  0
 19 21  2  0     0  0
 22 23  1  0     0  0
M  END
> <Compound >
4

> <standard_type>
pIC50

> <# Confs.>
25

> <canonical_smiles>
CCOC1=NC(NC2=CC=C(S(=O)(N)=O)C=C2)=NC(N)=C1N=O

> <standard_relation>
=

> <predicted_activity_value>
6.953114809162289

> <actual_activity_value>
7.031517051446065

> <Publication ID>
nan

> <standard_units>
nM

> hash
3817718728431901872

$$$$
3
XXILIB    08252103513D 0   0.00000     0.00000

 23 24  0     1  0            999 V2000
    5.4150    0.0468   -4.4167 S   0  0  2  0  0  6           0  0  0
    4.7842    0.6457   -5.5767 O   0  0  0  0  0  2           0  0  0
    6.6335    0.6032   -3.8617 O   0  0  0  0  0  2           0  0  0
   -4.5803    0.5692    0.8815 O   0  0  0  0  0  2           0  0  0
   -2.7511   -0.0034    2.2963 O   0  0  0  0  0  2           0  0  0
   -0.6719   -0.0000    1.1718 N   0  0  0  0  0  3           0  0  0
   -0.6184    0.0023   -1.2040 N   0  0  0  0  0  3           0  0  0
    5.6322   -1.6217   -4.6910 N   0  0  0  0  0  3           0  0  0
   -4.1065   -0.0115   -0.1029 N   0  0  0  0  0  3           0  0  0
    1.4051   -0.0000   -0.0000 N   0  0  0  0  0  3           0  0  0
   -2.5800   -0.0108   -2.5038 N   0  0  0  0  0  3           0  0  0
    4.2151    0.0013   -3.1249 C   0  0  0  0  0  4           0  0  0
   -2.0230   -0.0047    1.1153 C   0  0  0  0  0  4           0  0  0
    0.0000    0.0000    0.0000 C   0  0  0  0  0  4           0  0  0
   -1.9745    0.0165   -1.2480 C   0  0  0  0  0  4           0  0  0
   -2.7354   -0.0116   -0.0796 C   0  0  0  0  0  4           0  0  0
    2.3178    0.0000   -1.0576 C   0  0  0  0  0  4           0  0  0
    2.8581    0.0031   -3.4359 C   0  0  0  0  0  4           0  0  0
    4.6422    0.0076   -1.7995 C   0  0  0  0  0  4           0  0  0
    1.9161    0.0000   -2.4031 C   0  0  0  0  0  4           0  0  0
    3.6938    0.0037   -0.7747 C   0  0  0  0  0  4           0  0  0
   -1.9502    0.0030    3.4778 C   0  0  0  0  0  4           0  0  0
   -2.8776    0.0037    4.6793 C   0  0  0  0  0  4           0  0  0
  1  2  2  0     0  0
  1  3  2  0     0  0
  1  8  1  0     0  0
  1 12  1  0     0  0
  4  9  2  0     0  0
  5 13  1  0     0  0
  5 22  1  0     0  0
  6 13  2  0     0  0
  6 14  1  0     0  0
  7 14  2  0     0  0
  7 15  1  0     0  0
  9 16  1  0     0  0
 10 14  1  0     0  0
 10 17  1  0     0  0
 11 15  1  0     0  0
 12 18  2  0     0  0
 12 19  1  0     0  0
 13 16  1  0     0  0
 15 16  2  0     0  0
 17 20  2  0     0  0
 17 21  1  0     0  0
 18 20  1  0     0  0
 19 21  2  0     0  0
 22 23  1  0     0  0
M  END
> <Compound >
4

> <standard_type>
pIC50

> <# Confs.>
25

> <canonical_smiles>
CCOC1=NC(NC2=CC=C(S(=O)(N)=O)C=C2)=NC(N)=C1N=O

> <standard_relation>
=

> <predicted_activity_value>
6.953114809162289

> <actual_activity_value>
7.031517051446065

> <Publication ID>
nan

> <standard_units>
nM

> hash
3817718728431901872

$$$$
3
XXILIB    08252103513D 0   0.00000     0.00000

 23 24  0     1  0            999 V2000
    5.4150    0.0468   -4.4167 S   0  0  2  0  0  6           0  0  0
    6.6390   -0.5296   -3.8953 O   0  0  0  0  0  2           0  0  0
    4.7910   -0.4870   -5.6116 O   0  0  0  0  0  2           0  0  0
   -4.5803    0.5692    0.8815 O   0  0  0  0  0  2           0  0  0
   -2.7511   -0.0034    2.2963 O   0  0  0  0  0  2           0  0  0
   -0.6719   -0.0000    1.1718 N   0  0  0  0  0  3           0  0  0
   -0.6184    0.0023   -1.2040 N   0  0  0  0  0  3           0  0  0
    5.6136    1.7312   -4.5901 N   0  0  0  0  0  3           0  0  0
   -4.1065   -0.0115   -0.1029 N   0  0  0  0  0  3           0  0  0
    1.4051   -0.0000   -0.0000 N   0  0  0  0  0  3           0  0  0
   -2.5800   -0.0108   -2.5038 N   0  0  0  0  0  3           0  0  0
    4.2151    0.0013   -3.1249 C   0  0  0  0  0  4           0  0  0
   -2.0230   -0.0047    1.1153 C   0  0  0  0  0  4           0  0  0
    0.0000    0.0000    0.0000 C   0  0  0  0  0  4           0  0  0
   -1.9745    0.0165   -1.2480 C   0  0  0  0  0  4           0  0  0
   -2.7354   -0.0116   -0.0796 C   0  0  0  0  0  4           0  0  0
    2.3178    0.0000   -1.0576 C   0  0  0  0  0  4           0  0  0
    2.8581    0.0031   -3.4359 C   0  0  0  0  0  4           0  0  0
    4.6422    0.0076   -1.7995 C   0  0  0  0  0  4           0  0  0
    1.9161    0.0000   -2.4031 C   0  0  0  0  0  4           0  0  0
    3.6938    0.0037   -0.7747 C   0  0  0  0  0  4           0  0  0
   -1.9502    0.0030    3.4778 C   0  0  0  0  0  4           0  0  0
   -2.8776    0.0037    4.6793 C   0  0  0  0  0  4           0  0  0
  1  2  2  0     0  0
  1  3  2  0     0  0
  1  8  1  0     0  0
  1 12  1  0     0  0
  4  9  2  0     0  0
  5 13  1  0     0  0
  5 22  1  0     0  0
  6 13  2  0     0  0
  6 14  1  0     0  0
  7 14  2  0     0  0
  7 15  1  0     0  0
  9 16  1  0     0  0
 10 14  1  0     0  0
 10 17  1  0     0  0
 11 15  1  0     0  0
 12 18  2  0     0  0
 12 19  1  0     0  0
 13 16  1  0     0  0
 15 16  2  0     0  0
 17 20  2  0     0  0
 17 21  1  0     0  0
 18 20  1  0     0  0
 19 21  2  0     0  0
 22 23  1  0     0  0
M  END
> <Compound >
4

> <standard_type>
pIC50

> <# Confs.>
25

> <canonical_smiles>
CCOC1=NC(NC2=CC=C(S(=O)(N)=O)C=C2)=NC(N)=C1N=O

> <standard_relation>
=

> <predicted_activity_value>
6.953114809162289

> <actual_activity_value>
7.031517051446065

> <Publication ID>
nan

> <standard_units>
nM

> hash
3817718728431901872

$$$$
3
XXILIB    08252103513D 0   0.00000     0.00000

 23 24  0     1  0            999 V2000
    5.4175    2.1773   -3.8404 S   0  0  2  0  0  6           0  0  0
    5.1387    3.5896   -4.0138 O   0  0  0  0  0  2           0  0  0
    6.7162    1.7260   -3.3802 O   0  0  0  0  0  2           0  0  0
   -4.5467   -0.5922   -1.1028 O   0  0  0  0  0  2           0  0  0
   -2.7511   -0.0034    2.2963 O   0  0  0  0  0  2           0  0  0
   -0.6719   -0.0000    1.1718 N   0  0  0  0  0  3           0  0  0
   -0.6184    0.0023   -1.2040 N   0  0  0  0  0  3           0  0  0
    5.0046    1.3413   -5.2677 N   0  0  0  0  0  3           0  0  0
   -4.1065   -0.0115   -0.1029 N   0  0  0  0  0  3           0  0  0
    1.4051   -0.0000   -0.0000 N   0  0  0  0  0  3           0  0  0
   -2.5800   -0.0108   -2.5038 N   0  0  0  0  0  3           0  0  0
    4.2069    1.5298   -2.7333 C   0  0  0  0  0  4           0  0  0
   -2.0230   -0.0047    1.1153 C   0  0  0  0  0  4           0  0  0
    0.0000    0.0000    0.0000 C   0  0  0  0  0  4           0  0  0
   -1.9745    0.0165   -1.2480 C   0  0  0  0  0  4           0  0  0
   -2.7354   -0.0116   -0.0796 C   0  0  0  0  0  4           0  0  0
    2.3178    0.5288   -0.9159 C   0  0  0  0  0  4           0  0  0
    2.9754    2.1654   -2.6004 C   0  0  0  0  0  4           0  0  0
    4.5158    0.4079   -1.9684 C   0  0  0  0  0  4           0  0  0
    2.0361    1.6621   -1.6957 C   0  0  0  0  0  4           0  0  0
    3.5708   -0.0879   -1.0679 C   0  0  0  0  0  4           0  0  0
   -1.9502    0.0030    3.4778 C   0  0  0  0  0  4           0  0  0
   -2.8776    0.0037    4.6793 C   0  0  0  0  0  4           0  0  0
  1  2  2  0     0  0
  1  3  2  0     0  0
  1  8  1  0     0  0
  1 12  1  0     0  0
  4  9  2  0     0  0
  5 13  1  0     0  0
  5 22  1  0     0  0
  6 13  2  0     0  0
  6 14  1  0     0  0
  7 14  2  0     0  0
  7 15  1  0     0  0
  9 16  1  0     0  0
 10 14  1  0     0  0
 10 17  1  0     0  0
 11 15  1  0     0  0
 12 18  2  0     0  0
 12 19  1  0     0  0
 13 16  1  0     0  0
 15 16  2  0     0  0
 17 20  2  0     0  0
 17 21  1  0     0  0
 18 20  1  0     0  0
 19 21  2  0     0  0
 22 23  1  0     0  0
M  END
> <Compound >
4

> <standard_type>
pIC50

> <# Confs.>
25

> <canonical_smiles>
CCOC1=NC(NC2=CC=C(S(=O)(N)=O)C=C2)=NC(N)=C1N=O

> <standard_relation>
=

> <predicted_activity_value>
6.953114809162289

> <actual_activity_value>
7.031517051446065

> <Publication ID>
nan

> <standard_units>
nM

> hash
3817718728431901872

$$$$
3
XXILIB    08252103513D 0   0.00000     0.00000

 23 24  0     1  0            999 V2000
    5.4175   -2.1773    3.8404 S   0  0  2  0  0  6           0  0  0
    5.1387   -3.5896    4.0138 O   0  0  0  0  0  2           0  0  0
    6.7162   -1.7260    3.3802 O   0  0  0  0  0  2           0  0  0
   -4.5465    0.5575   -1.1095 O   0  0  0  0  0  2           0  0  0
   -2.7511   -0.0034    2.2963 O   0  0  0  0  0  2           0  0  0
   -0.6719   -0.0000    1.1718 N   0  0  0  0  0  3           0  0  0
   -0.6184    0.0023   -1.2040 N   0  0  0  0  0  3           0  0  0
    5.0046   -1.3413    5.2677 N   0  0  0  0  0  3           0  0  0
   -4.1065   -0.0115   -0.1029 N   0  0  0  0  0  3           0  0  0
    1.4051    0.0000    0.0000 N   0  0  0  0  0  3           0  0  0
   -2.5800   -0.0108   -2.5038 N   0  0  0  0  0  3           0  0  0
    4.2069   -1.5298    2.7333 C   0  0  0  0  0  4           0  0  0
   -2.0230   -0.0047    1.1153 C   0  0  0  0  0  4           0  0  0
    0.0000    0.0000    0.0000 C   0  0  0  0  0  4           0  0  0
   -1.9745    0.0165   -1.2480 C   0  0  0  0  0  4           0  0  0
   -2.7354   -0.0116   -0.0796 C   0  0  0  0  0  4           0  0  0
    2.3178   -0.5288    0.9159 C   0  0  0  0  0  4           0  0  0
    2.9754   -2.1654    2.6004 C   0  0  0  0  0  4           0  0  0
    4.5158   -0.4079    1.9684 C   0  0  0  0  0  4           0  0  0
    2.0361   -1.6621    1.6957 C   0  0  0  0  0  4           0  0  0
    3.5708    0.0879    1.0679 C   0  0  0  0  0  4           0  0  0
   -2.1008    0.6531    3.3842 C   0  0  0  0  0  4           0  0  0
   -3.1680    1.2370    4.2920 C   0  0  0  0  0  4           0  0  0
  1  2  2  0     0  0
  1  3  2  0     0  0
  1  8  1  0     0  0
  1 12  1  0     0  0
  4  9  2  0     0  0
  5 13  1  0     0  0
  5 22  1  0     0  0
  6 13  2  0     0  0
  6 14  1  0     0  0
  7 14  2  0     0  0
  7 15  1  0     0  0
  9 16  1  0     0  0
 10 14  1  0     0  0
 10 17  1  0     0  0
 11 15  1  0     0  0
 12 18  2  0     0  0
 12 19  1  0     0  0
 13 16  1  0     0  0
 15 16  2  0     0  0
 17 20  2  0     0  0
 17 21  1  0     0  0
 18 20  1  0     0  0
 19 21  2  0     0  0
 22 23  1  0     0  0
M  END
> <Compound >
4

> <standard_type>
pIC50

> <# Confs.>
25

> <canonical_smiles>
CCOC1=NC(NC2=CC=C(S(=O)(N)=O)C=C2)=NC(N)=C1N=O

> <standard_relation>
=

> <predicted_activity_value>
6.953114809162289

> <actual_activity_value>
7.031517051446065

> <Publication ID>
nan

> <standard_units>
nM

> hash
3817718728431901872

$$$$
3
XXILIB    08252103513D 0   0.00000     0.00000

 23 24  0     1  0            999 V2000
    5.3820    2.1224    3.9075 S   0  0  2  0  0  6           0  0  0
    4.6499    2.8319    4.9383 O   0  0  0  0  0  2           0  0  0
    6.2595    1.0183    4.2438 O   0  0  0  0  0  2           0  0  0
   -4.5803    0.5692    0.8815 O   0  0  0  0  0  2           0  0  0
   -2.7511   -0.0034    2.2963 O   0  0  0  0  0  2           0  0  0
   -0.6719   -0.0000    1.1718 N   0  0  0  0  0  3           0  0  0
   -0.6184    0.0023   -1.2040 N   0  0  0  0  0  3           0  0  0
    6.2324    3.2442    2.9457 N   0  0  0  0  0  3           0  0  0
   -4.1065   -0.0115   -0.1029 N   0  0  0  0  0  3           0  0  0
    1.4051   -0.0000   -0.0000 N   0  0  0  0  0  3           0  0  0
   -2.5800   -0.0108   -2.5038 N   0  0  0  0  0  3           0  0  0
    4.2059    1.5283    2.7351 C   0  0  0  0  0  4           0  0  0
   -2.0230   -0.0047    1.1153 C   0  0  0  0  0  4           0  0  0
    0.0000    0.0000    0.0000 C   0  0  0  0  0  4           0  0  0
   -1.9745    0.0165   -1.2480 C   0  0  0  0  0  4           0  0  0
   -2.7354   -0.0116   -0.0796 C   0  0  0  0  0  4           0  0  0
    2.3178    0.5288    0.9159 C   0  0  0  0  0  4           0  0  0
    2.9731    2.1617    2.6049 C   0  0  0  0  0  4           0  0  0
    4.5100    0.3989    1.9793 C   0  0  0  0  0  4           0  0  0
    2.0361    1.6621    1.6957 C   0  0  0  0  0  4           0  0  0
    3.5680   -0.0922    1.0732 C   0  0  0  0  0  4           0  0  0
   -1.9502    0.0030    3.4778 C   0  0  0  0  0  4           0  0  0
   -2.8776    0.0037    4.6793 C   0  0  0  0  0  4           0  0  0
  1  2  2  0     0  0
  1  3  2  0     0  0
  1  8  1  0     0  0
  1 12  1  0     0  0
  4  9  2  0     0  0
  5 13  1  0     0  0
  5 22  1  0     0  0
  6 13  2  0     0  0
  6 14  1  0     0  0
  7 14  2  0     0  0
  7 15  1  0     0  0
  9 16  1  0     0  0
 10 14  1  0     0  0
 10 17  1  0     0  0
 11 15  1  0     0  0
 12 18  2  0     0  0
 12 19  1  0     0  0
 13 16  1  0     0  0
 15 16  2  0     0  0
 17 20  2  0     0  0
 17 21  1  0     0  0
 18 20  1  0     0  0
 19 21  2  0     0  0
 22 23  1  0     0  0
M  END
> <Compound >
4

> <standard_type>
pIC50

> <# Confs.>
25

> <canonical_smiles>
CCOC1=NC(NC2=CC=C(S(=O)(N)=O)C=C2)=NC(N)=C1N=O

> <standard_relation>
=

> <predicted_activity_value>
6.953114809162289

> <actual_activity_value>
7.031517051446065

> <Publication ID>
nan

> <standard_units>
nM

> hash
3817718728431901872

$$$$
3
XXILIB    08252103513D 0   0.00000     0.00000

 23 24  0     1  0            999 V2000
    5.3820    2.1224    3.9075 S   0  0  2  0  0  6           0  0  0
    6.6957    1.7065    3.4562 O   0  0  0  0  0  2           0  0  0
    5.0872    3.5208    4.1519 O   0  0  0  0  0  2           0  0  0
   -4.5803    0.5692    0.8815 O   0  0  0  0  0  2           0  0  0
   -2.7511   -0.0034    2.2963 O   0  0  0  0  0  2           0  0  0
   -0.6719   -0.0000    1.1718 N   0  0  0  0  0  3           0  0  0
   -0.6184    0.0023   -1.2040 N   0  0  0  0  0  3           0  0  0
    4.9393    1.2065    5.2755 N   0  0  0  0  0  3           0  0  0
   -4.1065   -0.0115   -0.1029 N   0  0  0  0  0  3           0  0  0
    1.4051   -0.0000   -0.0000 N   0  0  0  0  0  3           0  0  0
   -2.5800   -0.0108   -2.5038 N   0  0  0  0  0  3           0  0  0
    4.2059    1.5283    2.7351 C   0  0  0  0  0  4           0  0  0
   -2.0230   -0.0047    1.1153 C   0  0  0  0  0  4           0  0  0
    0.0000    0.0000    0.0000 C   0  0  0  0  0  4           0  0  0
   -1.9745    0.0165   -1.2480 C   0  0  0  0  0  4           0  0  0
   -2.7354   -0.0116   -0.0796 C   0  0  0  0  0  4           0  0  0
    2.3178    0.5288    0.9159 C   0  0  0  0  0  4           0  0  0
    2.9731    2.1617    2.6049 C   0  0  0  0  0  4           0  0  0
    4.5100    0.3989    1.9793 C   0  0  0  0  0  4           0  0  0
    2.0361    1.6621    1.6957 C   0  0  0  0  0  4           0  0  0
    3.5680   -0.0922    1.0732 C   0  0  0  0  0  4           0  0  0
   -1.9502    0.0030    3.4778 C   0  0  0  0  0  4           0  0  0
   -2.8776    0.0037    4.6793 C   0  0  0  0  0  4           0  0  0
  1  2  2  0     0  0
  1  3  2  0     0  0
  1  8  1  0     0  0
  1 12  1  0     0  0
  4  9  2  0     0  0
  5 13  1  0     0  0
  5 22  1  0     0  0
  6 13  2  0     0  0
  6 14  1  0     0  0
  7 14  2  0     0  0
  7 15  1  0     0  0
  9 16  1  0     0  0
 10 14  1  0     0  0
 10 17  1  0     0  0
 11 15  1  0     0  0
 12 18  2  0     0  0
 12 19  1  0     0  0
 13 16  1  0     0  0
 15 16  2  0     0  0
 17 20  2  0     0  0
 17 21  1  0     0  0
 18 20  1  0     0  0
 19 21  2  0     0  0
 22 23  1  0     0  0
M  END
> <Compound >
4

> <standard_type>
pIC50

> <# Confs.>
25

> <canonical_smiles>
CCOC1=NC(NC2=CC=C(S(=O)(N)=O)C=C2)=NC(N)=C1N=O

> <standard_relation>
=

> <predicted_activity_value>
6.953114809162289

> <actual_activity_value>
7.031517051446065

> <Publication ID>
nan

> <standard_units>
nM

> hash
3817718728431901872

$$$$
3
XXILIB    08252103513D 0   0.00000     0.00000

 23 24  0     1  0            999 V2000
    5.4175   -2.1773    3.8404 S   0  0  2  0  0  6           0  0  0
    6.2947   -1.0852    4.2144 O   0  0  0  0  0  2           0  0  0
    4.7185   -2.9494    4.8491 O   0  0  0  0  0  2           0  0  0
   -4.5465    0.5575   -1.1095 O   0  0  0  0  0  2           0  0  0
   -2.7511   -0.0034    2.2963 O   0  0  0  0  0  2           0  0  0
   -0.6719   -0.0000    1.1718 N   0  0  0  0  0  3           0  0  0
   -0.6184    0.0023   -1.2040 N   0  0  0  0  0  3           0  0  0
    6.2499   -3.2377    2.7969 N   0  0  0  0  0  3           0  0  0
   -4.1065   -0.0115   -0.1029 N   0  0  0  0  0  3           0  0  0
    1.4051    0.0000    0.0000 N   0  0  0  0  0  3           0  0  0
   -2.5800   -0.0108   -2.5038 N   0  0  0  0  0  3           0  0  0
    4.2069   -1.5298    2.7333 C   0  0  0  0  0  4           0  0  0
   -2.0230   -0.0047    1.1153 C   0  0  0  0  0  4           0  0  0
    0.0000    0.0000    0.0000 C   0  0  0  0  0  4           0  0  0
   -1.9745    0.0165   -1.2480 C   0  0  0  0  0  4           0  0  0
   -2.7354   -0.0116   -0.0796 C   0  0  0  0  0  4           0  0  0
    2.3178   -0.5288    0.9159 C   0  0  0  0  0  4           0  0  0
    2.9754   -2.1654    2.6004 C   0  0  0  0  0  4           0  0  0
    4.5158   -0.4079    1.9684 C   0  0  0  0  0  4           0  0  0
    2.0361   -1.6621    1.6957 C   0  0  0  0  0  4           0  0  0
    3.5708    0.0879    1.0679 C   0  0  0  0  0  4           0  0  0
   -2.1008    0.6531    3.3842 C   0  0  0  0  0  4           0  0  0
   -3.1680    1.2370    4.2920 C   0  0  0  0  0  4           0  0  0
  1  2  2  0     0  0
  1  3  2  0     0  0
  1  8  1  0     0  0
  1 12  1  0     0  0
  4  9  2  0     0  0
  5 13  1  0     0  0
  5 22  1  0     0  0
  6 13  2  0     0  0
  6 14  1  0     0  0
  7 14  2  0     0  0
  7 15  1  0     0  0
  9 16  1  0     0  0
 10 14  1  0     0  0
 10 17  1  0     0  0
 11 15  1  0     0  0
 12 18  2  0     0  0
 12 19  1  0     0  0
 13 16  1  0     0  0
 15 16  2  0     0  0
 17 20  2  0     0  0
 17 21  1  0     0  0
 18 20  1  0     0  0
 19 21  2  0     0  0
 22 23  1  0     0  0
M  END
> <Compound >
4

> <standard_type>
pIC50

> <# Confs.>
25

> <canonical_smiles>
CCOC1=NC(NC2=CC=C(S(=O)(N)=O)C=C2)=NC(N)=C1N=O

> <standard_relation>
=

> <predicted_activity_value>
6.953114809162289

> <actual_activity_value>
7.031517051446065

> <Publication ID>
nan

> <standard_units>
nM

> hash
3817718728431901872

$$$$
3
XXILIB    08252103513D 0   0.00000     0.00000

 23 24  0     1  0            999 V2000
    5.3820   -2.1224   -3.9075 S   0  0  2  0  0  6           0  0  0
    6.6957   -1.7065   -3.4562 O   0  0  0  0  0  2           0  0  0
    5.0872   -3.5208   -4.1519 O   0  0  0  0  0  2           0  0  0
   -4.5467   -0.5922   -1.1028 O   0  0  0  0  0  2           0  0  0
   -2.7511   -0.0034    2.2963 O   0  0  0  0  0  2           0  0  0
   -0.6719   -0.0000    1.1718 N   0  0  0  0  0  3           0  0  0
   -0.6184    0.0023   -1.2040 N   0  0  0  0  0  3           0  0  0
    4.9393   -1.2065   -5.2755 N   0  0  0  0  0  3           0  0  0
   -4.1065   -0.0115   -0.1029 N   0  0  0  0  0  3           0  0  0
    1.4051    0.0000    0.0000 N   0  0  0  0  0  3           0  0  0
   -2.5800   -0.0108   -2.5038 N   0  0  0  0  0  3           0  0  0
    4.2059   -1.5283   -2.7351 C   0  0  0  0  0  4           0  0  0
   -2.0230   -0.0047    1.1153 C   0  0  0  0  0  4           0  0  0
    0.0000    0.0000    0.0000 C   0  0  0  0  0  4           0  0  0
   -1.9745    0.0165   -1.2480 C   0  0  0  0  0  4           0  0  0
   -2.7354   -0.0116   -0.0796 C   0  0  0  0  0  4           0  0  0
    2.3178   -0.5288   -0.9159 C   0  0  0  0  0  4           0  0  0
    2.9731   -2.1617   -2.6049 C   0  0  0  0  0  4           0  0  0
    4.5100   -0.3989   -1.9793 C   0  0  0  0  0  4           0  0  0
    2.0361   -1.6621   -1.6957 C   0  0  0  0  0  4           0  0  0
    3.5680    0.0922   -1.0732 C   0  0  0  0  0  4           0  0  0
   -1.9502    0.0030    3.4778 C   0  0  0  0  0  4           0  0  0
   -2.8776    0.0037    4.6793 C   0  0  0  0  0  4           0  0  0
  1  2  2  0     0  0
  1  3  2  0     0  0
  1  8  1  0     0  0
  1 12  1  0     0  0
  4  9  2  0     0  0
  5 13  1  0     0  0
  5 22  1  0     0  0
  6 13  2  0     0  0
  6 14  1  0     0  0
  7 14  2  0     0  0
  7 15  1  0     0  0
  9 16  1  0     0  0
 10 14  1  0     0  0
 10 17  1  0     0  0
 11 15  1  0     0  0
 12 18  2  0     0  0
 12 19  1  0     0  0
 13 16  1  0     0  0
 15 16  2  0     0  0
 17 20  2  0     0  0
 17 21  1  0     0  0
 18 20  1  0     0  0
 19 21  2  0     0  0
 22 23  1  0     0  0
M  END
> <Compound >
4

> <standard_type>
pIC50

> <# Confs.>
25

> <canonical_smiles>
CCOC1=NC(NC2=CC=C(S(=O)(N)=O)C=C2)=NC(N)=C1N=O

> <standard_relation>
=

> <predicted_activity_value>
6.953114809162289

> <actual_activity_value>
7.031517051446065

> <Publication ID>
nan

> <standard_units>
nM

> hash
3817718728431901872

$$$$
3
XXILIB    08252103513D 0   0.00000     0.00000

 23 24  0     1  0            999 V2000
    5.3820   -0.1157    4.4452 S   0  0  2  0  0  6           0  0  0
    6.6957   -0.2502    3.8464 O   0  0  0  0  0  2           0  0  0
    5.0872    0.9731    5.3560 O   0  0  0  0  0  2           0  0  0
   -4.5805   -0.5805    0.8883 O   0  0  0  0  0  2           0  0  0
   -2.7511   -0.0034    2.2963 O   0  0  0  0  0  2           0  0  0
   -0.6719   -0.0000    1.1718 N   0  0  0  0  0  3           0  0  0
   -0.6184    0.0023   -1.2040 N   0  0  0  0  0  3           0  0  0
    4.9393   -1.5929    5.1720 N   0  0  0  0  0  3           0  0  0
   -4.1065   -0.0115   -0.1029 N   0  0  0  0  0  3           0  0  0
    1.4051   -0.0000   -0.0000 N   0  0  0  0  0  3           0  0  0
   -2.5800   -0.0108   -2.5038 N   0  0  0  0  0  3           0  0  0
    4.2059   -0.0440    3.1328 C   0  0  0  0  0  4           0  0  0
   -2.0230   -0.0047    1.1153 C   0  0  0  0  0  4           0  0  0
    0.0000    0.0000    0.0000 C   0  0  0  0  0  4           0  0  0
   -1.9745    0.0165   -1.2480 C   0  0  0  0  0  4           0  0  0
   -2.7354   -0.0116   -0.0796 C   0  0  0  0  0  4           0  0  0
    2.3178   -0.0000    1.0576 C   0  0  0  0  0  4           0  0  0
    2.9731    0.5697    3.3368 C   0  0  0  0  0  4           0  0  0
    4.5100   -0.6442    1.9136 C   0  0  0  0  0  4           0  0  0
    2.0361    0.5916    2.2995 C   0  0  0  0  0  4           0  0  0
    3.5680   -0.6165    0.8833 C   0  0  0  0  0  4           0  0  0
   -1.9502    0.0030    3.4778 C   0  0  0  0  0  4           0  0  0
   -1.6889    1.4470    3.8658 C   0  0  0  0  0  4           0  0  0
  1  2  2  0     0  0
  1  3  2  0     0  0
  1  8  1  0     0  0
  1 12  1  0     0  0
  4  9  2  0     0  0
  5 13  1  0     0  0
  5 22  1  0     0  0
  6 13  2  0     0  0
  6 14  1  0     0  0
  7 14  2  0     0  0
  7 15  1  0     0  0
  9 16  1  0     0  0
 10 14  1  0     0  0
 10 17  1  0     0  0
 11 15  1  0     0  0
 12 18  2  0     0  0
 12 19  1  0     0  0
 13 16  1  0     0  0
 15 16  2  0     0  0
 17 20  2  0     0  0
 17 21  1  0     0  0
 18 20  1  0     0  0
 19 21  2  0     0  0
 22 23  1  0     0  0
M  END
> <Compound >
4

> <standard_type>
pIC50

> <# Confs.>
25

> <canonical_smiles>
CCOC1=NC(NC2=CC=C(S(=O)(N)=O)C=C2)=NC(N)=C1N=O

> <standard_relation>
=

> <predicted_activity_value>
6.953114809162289

> <actual_activity_value>
7.031517051446065

> <Publication ID>
nan

> <standard_units>
nM

> hash
3817718728431901872

$$$$
11
XXILIB    08252103513D 0   0.00000     0.00000

 27 29  0     1  0            999 V2000
    0.2879   -2.2222   -2.6650 O   0  0  0  0  0  2           0  0  0
    1.3872   -0.0000    0.0000 O   0  0  0  0  0  2           0  0  0
   -1.0045    0.0095    7.6726 O   0  0  0  0  0  2           0  0  0
   -0.6533   -0.0000    1.1838 N   0  0  0  0  0  3           0  0  0
   -2.7097    0.0098   -0.0006 N   0  0  0  0  0  3           0  0  0
    0.5988   -0.9696   -3.1866 N   0  0  0  0  0  3           0  0  0
   -2.7277    0.0152    2.3509 N   0  0  0  0  0  3           0  0  0
   -2.8199    0.0363   -2.3398 N   0  0  0  0  0  3           0  0  0
    0.0000    0.0000    0.0000 C   0  0  0  0  0  4           0  0  0
   -1.4960    0.0563    6.3929 C   0  0  0  0  0  4           0  0  0
   -2.0025    0.0074    1.1522 C   0  0  0  0  0  4           0  0  0
   -2.0470   -0.0081   -1.1850 C   0  0  0  0  0  4           0  0  0
   -2.2954    0.0169    3.6794 C   0  0  0  0  0  4           0  0  0
   -0.6544    0.0002   -1.2262 C   0  0  0  0  0  4           0  0  0
   -2.6941    0.6570    6.0036 C   0  0  0  0  0  4           0  0  0
   -0.7001   -0.5612    5.4251 C   0  0  0  0  0  4           0  0  0
   -3.0857    0.6357    4.6599 C   0  0  0  0  0  4           0  0  0
   -1.0946   -0.5813    4.0837 C   0  0  0  0  0  4           0  0  0
    1.9738   -0.0000    1.3009 C   0  0  0  0  0  4           0  0  0
   -1.9073    0.6723    8.5582 C   0  0  0  0  0  4           0  0  0
    0.1372    0.0111   -2.4692 C   0  0  0  0  0  4           0  0  0
    3.4930   -0.0000    1.1538 C   0  0  2  0  0  4           0  0  0
    3.9841   -1.2398    0.3871 C   0  0  0  0  0  4           0  0  0
    4.1634    0.0886    2.5317 C   0  0  0  0  0  4           0  0  0
    5.5076   -1.2774    0.2884 C   0  0  0  0  0  4           0  0  0
    5.6860    0.0501    2.4258 C   0  0  0  0  0  4           0  0  0
    6.1653   -1.1796    1.6611 C   0  0  0  0  0  4           0  0  0
  1  6  1  0     0  0
  2  9  1  0     0  0
  2 19  1  0     0  0
  3 10  1  0     0  0
  3 20  1  0     0  0
  4  9  2  0     0  0
  4 11  1  0     0  0
  5 11  2  0     0  0
  5 12  1  0     0  0
  6 21  2  0     0  0
  7 11  1  0     0  0
  7 13  1  0     0  0
  8 12  1  0     0  0
  9 14  1  0     0  0
 10 15  2  0     0  0
 10 16  1  0     0  0
 12 14  2  0     0  0
 13 17  2  0     0  0
 13 18  1  0     0  0
 14 21  1  0     0  0
 15 17  1  0     0  0
 16 18  2  0     0  0
 19 22  1  0     0  0
 22 23  1  0     0  0
 22 24  1  0     0  0
 23 25  1  0     0  0
 24 26  1  0     0  0
 25 27  1  0     0  0
 26 27  1  0     0  0
M  END
> <Compound >
12

> <standard_type>
pIC50

> <# Confs.>
25

> <canonical_smiles>
NC1=C(/C([H])=N/O)C(OCC2CCCCC2)=NC(NC3=CC=C(OC)C=C3)=N1

> <standard_relation>
=

> <predicted_activity_value>
5.6118987984294835

> <actual_activity_value>
5.080921907623926

> <Publication ID>
nan

> <standard_units>
nM

> hash
18056919525170555622

$$$$
11
XXILIB    08252103513D 0   0.00000     0.00000

 27 29  0     1  0            999 V2000
    0.2879   -2.2222   -2.6650 O   0  0  0  0  0  2           0  0  0
    1.3872   -0.0000    0.0000 O   0  0  0  0  0  2           0  0  0
   -0.9902    0.0089    7.6679 O   0  0  0  0  0  2           0  0  0
   -0.6533   -0.0000    1.1838 N   0  0  0  0  0  3           0  0  0
   -2.7097    0.0098   -0.0006 N   0  0  0  0  0  3           0  0  0
    0.5988   -0.9696   -3.1866 N   0  0  0  0  0  3           0  0  0
   -2.7277    0.0152    2.3509 N   0  0  0  0  0  3           0  0  0
   -2.8199    0.0363   -2.3398 N   0  0  0  0  0  3           0  0  0
    0.0000    0.0000    0.0000 C   0  0  0  0  0  4           0  0  0
   -1.4877   -0.0304    6.3903 C   0  0  0  0  0  4           0  0  0
   -2.0025    0.0074    1.1522 C   0  0  0  0  0  4           0  0  0
   -2.0470   -0.0081   -1.1850 C   0  0  0  0  0  4           0  0  0
   -2.2954    0.0169    3.6794 C   0  0  0  0  0  4           0  0  0
   -0.6544    0.0002   -1.2262 C   0  0  0  0  0  4           0  0  0
   -2.6963   -0.6129    6.0060 C   0  0  0  0  0  4           0  0  0
   -0.6867    0.5752    5.4191 C   0  0  0  0  0  4           0  0  0
   -3.0925   -0.5868    4.6637 C   0  0  0  0  0  4           0  0  0
   -1.0851    0.5989    4.0790 C   0  0  0  0  0  4           0  0  0
    1.9738   -0.0000    1.3009 C   0  0  0  0  0  4           0  0  0
   -1.8991   -0.6401    8.5573 C   0  0  0  0  0  4           0  0  0
    0.1372    0.0111   -2.4692 C   0  0  0  0  0  4           0  0  0
    3.4930   -0.0000    1.1538 C   0  0  2  0  0  4           0  0  0
    3.9841   -1.2398    0.3871 C   0  0  0  0  0  4           0  0  0
    4.1634    0.0886    2.5317 C   0  0  0  0  0  4           0  0  0
    5.5076   -1.2774    0.2884 C   0  0  0  0  0  4           0  0  0
    5.6860    0.0501    2.4258 C   0  0  0  0  0  4           0  0  0
    6.1653   -1.1796    1.6611 C   0  0  0  0  0  4           0  0  0
  1  6  1  0     0  0
  2  9  1  0     0  0
  2 19  1  0     0  0
  3 10  1  0     0  0
  3 20  1  0     0  0
  4  9  2  0     0  0
  4 11  1  0     0  0
  5 11  2  0     0  0
  5 12  1  0     0  0
  6 21  2  0     0  0
  7 11  1  0     0  0
  7 13  1  0     0  0
  8 12  1  0     0  0
  9 14  1  0     0  0
 10 15  2  0     0  0
 10 16  1  0     0  0
 12 14  2  0     0  0
 13 17  2  0     0  0
 13 18  1  0     0  0
 14 21  1  0     0  0
 15 17  1  0     0  0
 16 18  2  0     0  0
 19 22  1  0     0  0
 22 23  1  0     0  0
 22 24  1  0     0  0
 23 25  1  0     0  0
 24 26  1  0     0  0
 25 27  1  0     0  0
 26 27  1  0     0  0
M  END
> <Compound >
12

> <standard_type>
pIC50

> <# Confs.>
25

> <canonical_smiles>
NC1=C(/C([H])=N/O)C(OCC2CCCCC2)=NC(NC3=CC=C(OC)C=C3)=N1

> <standard_relation>
=

> <predicted_activity_value>
5.6118987984294835

> <actual_activity_value>
5.080921907623926

> <Publication ID>
nan

> <standard_units>
nM

> hash
18056919525170555622

$$$$
11
XXILIB    08252103513D 0   0.00000     0.00000

 27 29  0     1  0            999 V2000
    0.2879   -2.2222   -2.6650 O   0  0  0  0  0  2           0  0  0
    1.3872   -0.0000    0.0000 O   0  0  0  0  0  2           0  0  0
   -1.0045    0.0095    7.6726 O   0  0  0  0  0  2           0  0  0
   -0.6533   -0.0000    1.1838 N   0  0  0  0  0  3           0  0  0
   -2.7097    0.0098   -0.0006 N   0  0  0  0  0  3           0  0  0
    0.5988   -0.9696   -3.1866 N   0  0  0  0  0  3           0  0  0
   -2.7277    0.0152    2.3509 N   0  0  0  0  0  3           0  0  0
   -2.8199    0.0363   -2.3398 N   0  0  0  0  0  3           0  0  0
    0.0000    0.0000    0.0000 C   0  0  0  0  0  4           0  0  0
   -1.4960    0.0563    6.3929 C   0  0  0  0  0  4           0  0  0
   -2.0025    0.0074    1.1522 C   0  0  0  0  0  4           0  0  0
   -2.0470   -0.0081   -1.1850 C   0  0  0  0  0  4           0  0  0
   -2.2954    0.0169    3.6794 C   0  0  0  0  0  4           0  0  0
   -0.6544    0.0002   -1.2262 C   0  0  0  0  0  4           0  0  0
   -2.6941    0.6570    6.0036 C   0  0  0  0  0  4           0  0  0
   -0.7001   -0.5612    5.4251 C   0  0  0  0  0  4           0  0  0
   -3.0857    0.6357    4.6599 C   0  0  0  0  0  4           0  0  0
   -1.0946   -0.5813    4.0837 C   0  0  0  0  0  4           0  0  0
    1.9738   -0.0000    1.3009 C   0  0  0  0  0  4           0  0  0
   -1.9073    0.6723    8.5582 C   0  0  0  0  0  4           0  0  0
    0.1372    0.0111   -2.4692 C   0  0  0  0  0  4           0  0  0
    3.4930   -0.0000    1.1538 C   0  0  2  0  0  4           0  0  0
    4.1910   -0.0000    2.5246 C   0  0  0  0  0  4           0  0  0
    3.9485    1.1994    0.3112 C   0  0  0  0  0  4           0  0  0
    5.7107    0.0608    2.3858 C   0  0  0  0  0  4           0  0  0
    5.4683    1.2544    0.1769 C   0  0  0  0  0  4           0  0  0
    6.1536    1.2500    1.5396 C   0  0  0  0  0  4           0  0  0
  1  6  1  0     0  0
  2  9  1  0     0  0
  2 19  1  0     0  0
  3 10  1  0     0  0
  3 20  1  0     0  0
  4  9  2  0     0  0
  4 11  1  0     0  0
  5 11  2  0     0  0
  5 12  1  0     0  0
  6 21  2  0     0  0
  7 11  1  0     0  0
  7 13  1  0     0  0
  8 12  1  0     0  0
  9 14  1  0     0  0
 10 15  2  0     0  0
 10 16  1  0     0  0
 12 14  2  0     0  0
 13 17  2  0     0  0
 13 18  1  0     0  0
 14 21  1  0     0  0
 15 17  1  0     0  0
 16 18  2  0     0  0
 19 22  1  0     0  0
 22 23  1  0     0  0
 22 24  1  0     0  0
 23 25  1  0     0  0
 24 26  1  0     0  0
 25 27  1  0     0  0
 26 27  1  0     0  0
M  END
> <Compound >
12

> <standard_type>
pIC50

> <# Confs.>
25

> <canonical_smiles>
NC1=C(/C([H])=N/O)C(OCC2CCCCC2)=NC(NC3=CC=C(OC)C=C3)=N1

> <standard_relation>
=

> <predicted_activity_value>
5.6118987984294835

> <actual_activity_value>
5.080921907623926

> <Publication ID>
nan

> <standard_units>
nM

> hash
18056919525170555622

$$$$
11
XXILIB    08252103513D 0   0.00000     0.00000

 27 29  0     1  0            999 V2000
    0.2879   -2.2222   -2.6650 O   0  0  0  0  0  2           0  0  0
    1.3872   -0.0000    0.0000 O   0  0  0  0  0  2           0  0  0
   -1.0045    0.0095    7.6726 O   0  0  0  0  0  2           0  0  0
   -0.6533   -0.0000    1.1838 N   0  0  0  0  0  3           0  0  0
   -2.7097    0.0098   -0.0006 N   0  0  0  0  0  3           0  0  0
    0.5988   -0.9696   -3.1866 N   0  0  0  0  0  3           0  0  0
   -2.7277    0.0152    2.3509 N   0  0  0  0  0  3           0  0  0
   -2.8199    0.0363   -2.3398 N   0  0  0  0  0  3           0  0  0
    0.0000    0.0000    0.0000 C   0  0  0  0  0  4           0  0  0
   -1.4960    0.0563    6.3929 C   0  0  0  0  0  4           0  0  0
   -2.0025    0.0074    1.1522 C   0  0  0  0  0  4           0  0  0
   -2.0470   -0.0081   -1.1850 C   0  0  0  0  0  4           0  0  0
   -2.2954    0.0169    3.6794 C   0  0  0  0  0  4           0  0  0
   -0.6544    0.0002   -1.2262 C   0  0  0  0  0  4           0  0  0
   -2.6941    0.6570    6.0036 C   0  0  0  0  0  4           0  0  0
   -0.7001   -0.5612    5.4251 C   0  0  0  0  0  4           0  0  0
   -3.0857    0.6357    4.6599 C   0  0  0  0  0  4           0  0  0
   -1.0946   -0.5813    4.0837 C   0  0  0  0  0  4           0  0  0
    1.9738   -0.0000    1.3009 C   0  0  0  0  0  4           0  0  0
   -1.9073    0.6723    8.5582 C   0  0  0  0  0  4           0  0  0
    0.1372    0.0111   -2.4692 C   0  0  0  0  0  4           0  0  0
    3.4930   -0.0000    1.1538 C   0  0  2  0  0  4           0  0  0
    3.9841    1.2398    0.3871 C   0  0  0  0  0  4           0  0  0
    3.9633   -1.2880    0.4640 C   0  0  0  0  0  4           0  0  0
    5.4975    1.2166    0.1835 C   0  0  0  0  0  4           0  0  0
    5.4766   -1.3044    0.2632 C   0  0  0  0  0  4           0  0  0
    5.9567   -0.0705   -0.4940 C   0  0  0  0  0  4           0  0  0
  1  6  1  0     0  0
  2  9  1  0     0  0
  2 19  1  0     0  0
  3 10  1  0     0  0
  3 20  1  0     0  0
  4  9  2  0     0  0
  4 11  1  0     0  0
  5 11  2  0     0  0
  5 12  1  0     0  0
  6 21  2  0     0  0
  7 11  1  0     0  0
  7 13  1  0     0  0
  8 12  1  0     0  0
  9 14  1  0     0  0
 10 15  2  0     0  0
 10 16  1  0     0  0
 12 14  2  0     0  0
 13 17  2  0     0  0
 13 18  1  0     0  0
 14 21  1  0     0  0
 15 17  1  0     0  0
 16 18  2  0     0  0
 19 22  1  0     0  0
 22 23  1  0     0  0
 22 24  1  0     0  0
 23 25  1  0     0  0
 24 26  1  0     0  0
 25 27  1  0     0  0
 26 27  1  0     0  0
M  END
> <Compound >
12

> <standard_type>
pIC50

> <# Confs.>
25

> <canonical_smiles>
NC1=C(/C([H])=N/O)C(OCC2CCCCC2)=NC(NC3=CC=C(OC)C=C3)=N1

> <standard_relation>
=

> <predicted_activity_value>
5.6118987984294835

> <actual_activity_value>
5.080921907623926

> <Publication ID>
nan

> <standard_units>
nM

> hash
18056919525170555622

$$$$
11
XXILIB    08252103513D 0   0.00000     0.00000

 27 29  0     1  0            999 V2000
    0.2879   -2.2222   -2.6650 O   0  0  0  0  0  2           0  0  0
    1.3872   -0.0000    0.0000 O   0  0  0  0  0  2           0  0  0
   -0.9902    0.0089    7.6679 O   0  0  0  0  0  2           0  0  0
   -0.6533   -0.0000    1.1838 N   0  0  0  0  0  3           0  0  0
   -2.7097    0.0098   -0.0006 N   0  0  0  0  0  3           0  0  0
    0.5988   -0.9696   -3.1866 N   0  0  0  0  0  3           0  0  0
   -2.7277    0.0152    2.3509 N   0  0  0  0  0  3           0  0  0
   -2.8199    0.0363   -2.3398 N   0  0  0  0  0  3           0  0  0
    0.0000    0.0000    0.0000 C   0  0  0  0  0  4           0  0  0
   -1.4877   -0.0304    6.3903 C   0  0  0  0  0  4           0  0  0
   -2.0025    0.0074    1.1522 C   0  0  0  0  0  4           0  0  0
   -2.0470   -0.0081   -1.1850 C   0  0  0  0  0  4           0  0  0
   -2.2954    0.0169    3.6794 C   0  0  0  0  0  4           0  0  0
   -0.6544    0.0002   -1.2262 C   0  0  0  0  0  4           0  0  0
   -2.6963   -0.6129    6.0060 C   0  0  0  0  0  4           0  0  0
   -0.6867    0.5752    5.4191 C   0  0  0  0  0  4           0  0  0
   -3.0925   -0.5868    4.6637 C   0  0  0  0  0  4           0  0  0
   -1.0851    0.5989    4.0790 C   0  0  0  0  0  4           0  0  0
    1.9738   -0.0000    1.3009 C   0  0  0  0  0  4           0  0  0
   -1.8991   -0.6401    8.5573 C   0  0  0  0  0  4           0  0  0
    0.1372    0.0111   -2.4692 C   0  0  0  0  0  4           0  0  0
    3.4930   -0.0000    1.1538 C   0  0  2  0  0  4           0  0  0
    4.1910   -0.0000    2.5246 C   0  0  0  0  0  4           0  0  0
    3.9485    1.1994    0.3112 C   0  0  0  0  0  4           0  0  0
    5.7107    0.0608    2.3858 C   0  0  0  0  0  4           0  0  0
    5.4683    1.2544    0.1769 C   0  0  0  0  0  4           0  0  0
    6.1536    1.2500    1.5396 C   0  0  0  0  0  4           0  0  0
  1  6  1  0     0  0
  2  9  1  0     0  0
  2 19  1  0     0  0
  3 10  1  0     0  0
  3 20  1  0     0  0
  4  9  2  0     0  0
  4 11  1  0     0  0
  5 11  2  0     0  0
  5 12  1  0     0  0
  6 21  2  0     0  0
  7 11  1  0     0  0
  7 13  1  0     0  0
  8 12  1  0     0  0
  9 14  1  0     0  0
 10 15  2  0     0  0
 10 16  1  0     0  0
 12 14  2  0     0  0
 13 17  2  0     0  0
 13 18  1  0     0  0
 14 21  1  0     0  0
 15 17  1  0     0  0
 16 18  2  0     0  0
 19 22  1  0     0  0
 22 23  1  0     0  0
 22 24  1  0     0  0
 23 25  1  0     0  0
 24 26  1  0     0  0
 25 27  1  0     0  0
 26 27  1  0     0  0
M  END
> <Compound >
12

> <standard_type>
pIC50

> <# Confs.>
25

> <canonical_smiles>
NC1=C(/C([H])=N/O)C(OCC2CCCCC2)=NC(NC3=CC=C(OC)C=C3)=N1

> <standard_relation>
=

> <predicted_activity_value>
5.6118987984294835

> <actual_activity_value>
5.080921907623926

> <Publication ID>
nan

> <standard_units>
nM

> hash
18056919525170555622

$$$$
11
XXILIB    08252103513D 0   0.00000     0.00000

 27 29  0     1  0            999 V2000
    0.2879   -2.2222   -2.6650 O   0  0  0  0  0  2           0  0  0
    1.3872   -0.0000    0.0000 O   0  0  0  0  0  2           0  0  0
   -0.9902    0.0089    7.6679 O   0  0  0  0  0  2           0  0  0
   -0.6533   -0.0000    1.1838 N   0  0  0  0  0  3           0  0  0
   -2.7097    0.0098   -0.0006 N   0  0  0  0  0  3           0  0  0
    0.5988   -0.9696   -3.1866 N   0  0  0  0  0  3           0  0  0
   -2.7277    0.0152    2.3509 N   0  0  0  0  0  3           0  0  0
   -2.8199    0.0363   -2.3398 N   0  0  0  0  0  3           0  0  0
    0.0000    0.0000    0.0000 C   0  0  0  0  0  4           0  0  0
   -1.4877   -0.0304    6.3903 C   0  0  0  0  0  4           0  0  0
   -2.0025    0.0074    1.1522 C   0  0  0  0  0  4           0  0  0
   -2.0470   -0.0081   -1.1850 C   0  0  0  0  0  4           0  0  0
   -2.2954    0.0169    3.6794 C   0  0  0  0  0  4           0  0  0
   -0.6544    0.0002   -1.2262 C   0  0  0  0  0  4           0  0  0
   -2.6963   -0.6129    6.0060 C   0  0  0  0  0  4           0  0  0
   -0.6867    0.5752    5.4191 C   0  0  0  0  0  4           0  0  0
   -3.0925   -0.5868    4.6637 C   0  0  0  0  0  4           0  0  0
   -1.0851    0.5989    4.0790 C   0  0  0  0  0  4           0  0  0
    1.9738   -0.0000    1.3009 C   0  0  0  0  0  4           0  0  0
   -1.8991   -0.6401    8.5573 C   0  0  0  0  0  4           0  0  0
    0.1372    0.0111   -2.4692 C   0  0  0  0  0  4           0  0  0
    3.4930   -0.0000    1.1538 C   0  0  2  0  0  4           0  0  0
    3.9841    1.2398    0.3871 C   0  0  0  0  0  4           0  0  0
    3.9633   -1.2880    0.4640 C   0  0  0  0  0  4           0  0  0
    5.4975    1.2166    0.1835 C   0  0  0  0  0  4           0  0  0
    5.4766   -1.3044    0.2632 C   0  0  0  0  0  4           0  0  0
    5.9567   -0.0705   -0.4940 C   0  0  0  0  0  4           0  0  0
  1  6  1  0     0  0
  2  9  1  0     0  0
  2 19  1  0     0  0
  3 10  1  0     0  0
  3 20  1  0     0  0
  4  9  2  0     0  0
  4 11  1  0     0  0
  5 11  2  0     0  0
  5 12  1  0     0  0
  6 21  2  0     0  0
  7 11  1  0     0  0
  7 13  1  0     0  0
  8 12  1  0     0  0
  9 14  1  0     0  0
 10 15  2  0     0  0
 10 16  1  0     0  0
 12 14  2  0     0  0
 13 17  2  0     0  0
 13 18  1  0     0  0
 14 21  1  0     0  0
 15 17  1  0     0  0
 16 18  2  0     0  0
 19 22  1  0     0  0
 22 23  1  0     0  0
 22 24  1  0     0  0
 23 25  1  0     0  0
 24 26  1  0     0  0
 25 27  1  0     0  0
 26 27  1  0     0  0
M  END
> <Compound >
12

> <standard_type>
pIC50

> <# Confs.>
25

> <canonical_smiles>
NC1=C(/C([H])=N/O)C(OCC2CCCCC2)=NC(NC3=CC=C(OC)C=C3)=N1

> <standard_relation>
=

> <predicted_activity_value>
5.6118987984294835

> <actual_activity_value>
5.080921907623926

> <Publication ID>
nan

> <standard_units>
nM

> hash
18056919525170555622

$$$$
11
XXILIB    08252103513D 0   0.00000     0.00000

 27 29  0     1  0            999 V2000
    0.2879   -2.2222   -2.6650 O   0  0  0  0  0  2           0  0  0
    1.3872   -0.0000    0.0000 O   0  0  0  0  0  2           0  0  0
   -1.0045    0.0095    7.6726 O   0  0  0  0  0  2           0  0  0
   -0.6533   -0.0000    1.1838 N   0  0  0  0  0  3           0  0  0
   -2.7097    0.0098   -0.0006 N   0  0  0  0  0  3           0  0  0
    0.5988   -0.9696   -3.1866 N   0  0  0  0  0  3           0  0  0
   -2.7277    0.0152    2.3509 N   0  0  0  0  0  3           0  0  0
   -2.8199    0.0363   -2.3398 N   0  0  0  0  0  3           0  0  0
    0.0000    0.0000    0.0000 C   0  0  0  0  0  4           0  0  0
   -1.4960    0.0563    6.3929 C   0  0  0  0  0  4           0  0  0
   -2.0025    0.0074    1.1522 C   0  0  0  0  0  4           0  0  0
   -2.0470   -0.0081   -1.1850 C   0  0  0  0  0  4           0  0  0
   -2.2954    0.0169    3.6794 C   0  0  0  0  0  4           0  0  0
   -0.6544    0.0002   -1.2262 C   0  0  0  0  0  4           0  0  0
   -2.6941    0.6570    6.0036 C   0  0  0  0  0  4           0  0  0
   -0.7001   -0.5612    5.4251 C   0  0  0  0  0  4           0  0  0
   -3.0857    0.6357    4.6599 C   0  0  0  0  0  4           0  0  0
   -1.0946   -0.5813    4.0837 C   0  0  0  0  0  4           0  0  0
    1.9738   -0.0000    1.3009 C   0  0  0  0  0  4           0  0  0
   -1.9073    0.6723    8.5582 C   0  0  0  0  0  4           0  0  0
    0.1372    0.0111   -2.4692 C   0  0  0  0  0  4           0  0  0
    3.4930   -0.0000    1.1538 C   0  0  2  0  0  4           0  0  0
    4.1877   -0.0000    2.5236 C   0  0  0  0  0  4           0  0  0
    4.0009   -1.1720    0.2949 C   0  0  0  0  0  4           0  0  0
    4.0850   -1.3448    3.2409 C   0  0  0  0  0  4           0  0  0
    3.9037   -2.5194    1.0088 C   0  0  0  0  0  4           0  0  0
    4.5966   -2.4868    2.3679 C   0  0  0  0  0  4           0  0  0
  1  6  1  0     0  0
  2  9  1  0     0  0
  2 19  1  0     0  0
  3 10  1  0     0  0
  3 20  1  0     0  0
  4  9  2  0     0  0
  4 11  1  0     0  0
  5 11  2  0     0  0
  5 12  1  0     0  0
  6 21  2  0     0  0
  7 11  1  0     0  0
  7 13  1  0     0  0
  8 12  1  0     0  0
  9 14  1  0     0  0
 10 15  2  0     0  0
 10 16  1  0     0  0
 12 14  2  0     0  0
 13 17  2  0     0  0
 13 18  1  0     0  0
 14 21  1  0     0  0
 15 17  1  0     0  0
 16 18  2  0     0  0
 19 22  1  0     0  0
 22 23  1  0     0  0
 22 24  1  0     0  0
 23 25  1  0     0  0
 24 26  1  0     0  0
 25 27  1  0     0  0
 26 27  1  0     0  0
M  END
> <Compound >
12

> <standard_type>
pIC50

> <# Confs.>
25

> <canonical_smiles>
NC1=C(/C([H])=N/O)C(OCC2CCCCC2)=NC(NC3=CC=C(OC)C=C3)=N1

> <standard_relation>
=

> <predicted_activity_value>
5.6118987984294835

> <actual_activity_value>
5.080921907623926

> <Publication ID>
nan

> <standard_units>
nM

> hash
18056919525170555622

$$$$
11
XXILIB    08252103513D 0   0.00000     0.00000

 27 29  0     1  0            999 V2000
    0.2879   -2.2222   -2.6650 O   0  0  0  0  0  2           0  0  0
    1.3872   -0.0000    0.0000 O   0  0  0  0  0  2           0  0  0
   -1.0045    0.0095    7.6726 O   0  0  0  0  0  2           0  0  0
   -0.6533   -0.0000    1.1838 N   0  0  0  0  0  3           0  0  0
   -2.7097    0.0098   -0.0006 N   0  0  0  0  0  3           0  0  0
    0.5988   -0.9696   -3.1866 N   0  0  0  0  0  3           0  0  0
   -2.7277    0.0152    2.3509 N   0  0  0  0  0  3           0  0  0
   -2.8199    0.0363   -2.3398 N   0  0  0  0  0  3           0  0  0
    0.0000    0.0000    0.0000 C   0  0  0  0  0  4           0  0  0
   -1.4960    0.0563    6.3929 C   0  0  0  0  0  4           0  0  0
   -2.0025    0.0074    1.1522 C   0  0  0  0  0  4           0  0  0
   -2.0470   -0.0081   -1.1850 C   0  0  0  0  0  4           0  0  0
   -2.2954    0.0169    3.6794 C   0  0  0  0  0  4           0  0  0
   -0.6544    0.0002   -1.2262 C   0  0  0  0  0  4           0  0  0
   -2.6941    0.6570    6.0036 C   0  0  0  0  0  4           0  0  0
   -0.7001   -0.5612    5.4251 C   0  0  0  0  0  4           0  0  0
   -3.0857    0.6357    4.6599 C   0  0  0  0  0  4           0  0  0
   -1.0946   -0.5813    4.0837 C   0  0  0  0  0  4           0  0  0
    1.9738   -0.0000    1.3009 C   0  0  0  0  0  4           0  0  0
   -1.9073    0.6723    8.5582 C   0  0  0  0  0  4           0  0  0
    0.1372    0.0111   -2.4692 C   0  0  0  0  0  4           0  0  0
    3.4930   -0.0000    1.1538 C   0  0  2  0  0  4           0  0  0
    3.9810    1.2387    0.3881 C   0  0  0  0  0  4           0  0  0
    4.2152   -0.1120    2.5085 C   0  0  0  0  0  4           0  0  0
    3.8887    2.5209    1.2133 C   0  0  0  0  0  4           0  0  0
    4.1290    1.1690    3.3369 C   0  0  0  0  0  4           0  0  0
    4.6141    2.3820    2.5486 C   0  0  0  0  0  4           0  0  0
  1  6  1  0     0  0
  2  9  1  0     0  0
  2 19  1  0     0  0
  3 10  1  0     0  0
  3 20  1  0     0  0
  4  9  2  0     0  0
  4 11  1  0     0  0
  5 11  2  0     0  0
  5 12  1  0     0  0
  6 21  2  0     0  0
  7 11  1  0     0  0
  7 13  1  0     0  0
  8 12  1  0     0  0
  9 14  1  0     0  0
 10 15  2  0     0  0
 10 16  1  0     0  0
 12 14  2  0     0  0
 13 17  2  0     0  0
 13 18  1  0     0  0
 14 21  1  0     0  0
 15 17  1  0     0  0
 16 18  2  0     0  0
 19 22  1  0     0  0
 22 23  1  0     0  0
 22 24  1  0     0  0
 23 25  1  0     0  0
 24 26  1  0     0  0
 25 27  1  0     0  0
 26 27  1  0     0  0
M  END
> <Compound >
12

> <standard_type>
pIC50

> <# Confs.>
25

> <canonical_smiles>
NC1=C(/C([H])=N/O)C(OCC2CCCCC2)=NC(NC3=CC=C(OC)C=C3)=N1

> <standard_relation>
=

> <predicted_activity_value>
5.6118987984294835

> <actual_activity_value>
5.080921907623926

> <Publication ID>
nan

> <standard_units>
nM

> hash
18056919525170555622

$$$$
11
XXILIB    08252103513D 0   0.00000     0.00000

 27 29  0     1  0            999 V2000
    0.2879   -2.2222   -2.6650 O   0  0  0  0  0  2           0  0  0
    1.3872   -0.0000    0.0000 O   0  0  0  0  0  2           0  0  0
   -0.9902    0.0089    7.6679 O   0  0  0  0  0  2           0  0  0
   -0.6533   -0.0000    1.1838 N   0  0  0  0  0  3           0  0  0
   -2.7097    0.0098   -0.0006 N   0  0  0  0  0  3           0  0  0
    0.5988   -0.9696   -3.1866 N   0  0  0  0  0  3           0  0  0
   -2.7277    0.0152    2.3509 N   0  0  0  0  0  3           0  0  0
   -2.8199    0.0363   -2.3398 N   0  0  0  0  0  3           0  0  0
    0.0000    0.0000    0.0000 C   0  0  0  0  0  4           0  0  0
   -1.4877   -0.0304    6.3903 C   0  0  0  0  0  4           0  0  0
   -2.0025    0.0074    1.1522 C   0  0  0  0  0  4           0  0  0
   -2.0470   -0.0081   -1.1850 C   0  0  0  0  0  4           0  0  0
   -2.2954    0.0169    3.6794 C   0  0  0  0  0  4           0  0  0
   -0.6544    0.0002   -1.2262 C   0  0  0  0  0  4           0  0  0
   -2.6963   -0.6129    6.0060 C   0  0  0  0  0  4           0  0  0
   -0.6867    0.5752    5.4191 C   0  0  0  0  0  4           0  0  0
   -3.0925   -0.5868    4.6637 C   0  0  0  0  0  4           0  0  0
   -1.0851    0.5989    4.0790 C   0  0  0  0  0  4           0  0  0
    1.9738   -0.0000    1.3009 C   0  0  0  0  0  4           0  0  0
   -1.8991   -0.6401    8.5573 C   0  0  0  0  0  4           0  0  0
    0.1372    0.0111   -2.4692 C   0  0  0  0  0  4           0  0  0
    3.4930   -0.0000    1.1538 C   0  0  2  0  0  4           0  0  0
    3.9810    1.2387    0.3881 C   0  0  0  0  0  4           0  0  0
    4.2152   -0.1120    2.5085 C   0  0  0  0  0  4           0  0  0
    3.8887    2.5209    1.2133 C   0  0  0  0  0  4           0  0  0
    4.1290    1.1690    3.3369 C   0  0  0  0  0  4           0  0  0
    4.6141    2.3820    2.5486 C   0  0  0  0  0  4           0  0  0
  1  6  1  0     0  0
  2  9  1  0     0  0
  2 19  1  0     0  0
  3 10  1  0     0  0
  3 20  1  0     0  0
  4  9  2  0     0  0
  4 11  1  0     0  0
  5 11  2  0     0  0
  5 12  1  0     0  0
  6 21  2  0     0  0
  7 11  1  0     0  0
  7 13  1  0     0  0
  8 12  1  0     0  0
  9 14  1  0     0  0
 10 15  2  0     0  0
 10 16  1  0     0  0
 12 14  2  0     0  0
 13 17  2  0     0  0
 13 18  1  0     0  0
 14 21  1  0     0  0
 15 17  1  0     0  0
 16 18  2  0     0  0
 19 22  1  0     0  0
 22 23  1  0     0  0
 22 24  1  0     0  0
 23 25  1  0     0  0
 24 26  1  0     0  0
 25 27  1  0     0  0
 26 27  1  0     0  0
M  END
> <Compound >
12

> <standard_type>
pIC50

> <# Confs.>
25

> <canonical_smiles>
NC1=C(/C([H])=N/O)C(OCC2CCCCC2)=NC(NC3=CC=C(OC)C=C3)=N1

> <standard_relation>
=

> <predicted_activity_value>
5.6118987984294835

> <actual_activity_value>
5.080921907623926

> <Publication ID>
nan

> <standard_units>
nM

> hash
18056919525170555622

$$$$
11
XXILIB    08252103513D 0   0.00000     0.00000

 27 29  0     1  0            999 V2000
    0.2879   -2.2222   -2.6650 O   0  0  0  0  0  2           0  0  0
    1.3872   -0.0000    0.0000 O   0  0  0  0  0  2           0  0  0
   -0.9902    0.0089    7.6679 O   0  0  0  0  0  2           0  0  0
   -0.6533   -0.0000    1.1838 N   0  0  0  0  0  3           0  0  0
   -2.7097    0.0098   -0.0006 N   0  0  0  0  0  3           0  0  0
    0.5988   -0.9696   -3.1866 N   0  0  0  0  0  3           0  0  0
   -2.7277    0.0152    2.3509 N   0  0  0  0  0  3           0  0  0
   -2.8199    0.0363   -2.3398 N   0  0  0  0  0  3           0  0  0
    0.0000    0.0000    0.0000 C   0  0  0  0  0  4           0  0  0
   -1.4877   -0.0304    6.3903 C   0  0  0  0  0  4           0  0  0
   -2.0025    0.0074    1.1522 C   0  0  0  0  0  4           0  0  0
   -2.0470   -0.0081   -1.1850 C   0  0  0  0  0  4           0  0  0
   -2.2954    0.0169    3.6794 C   0  0  0  0  0  4           0  0  0
   -0.6544    0.0002   -1.2262 C   0  0  0  0  0  4           0  0  0
   -2.6963   -0.6129    6.0060 C   0  0  0  0  0  4           0  0  0
   -0.6867    0.5752    5.4191 C   0  0  0  0  0  4           0  0  0
   -3.0925   -0.5868    4.6637 C   0  0  0  0  0  4           0  0  0
   -1.0851    0.5989    4.0790 C   0  0  0  0  0  4           0  0  0
    1.9738   -0.0000    1.3009 C   0  0  0  0  0  4           0  0  0
   -1.8991   -0.6401    8.5573 C   0  0  0  0  0  4           0  0  0
    0.1372    0.0111   -2.4692 C   0  0  0  0  0  4           0  0  0
    3.4930   -0.0000    1.1538 C   0  0  2  0  0  4           0  0  0
    4.1877   -0.0000    2.5236 C   0  0  0  0  0  4           0  0  0
    4.0009   -1.1720    0.2949 C   0  0  0  0  0  4           0  0  0
    4.0850   -1.3448    3.2409 C   0  0  0  0  0  4           0  0  0
    3.9037   -2.5194    1.0088 C   0  0  0  0  0  4           0  0  0
    4.5966   -2.4868    2.3679 C   0  0  0  0  0  4           0  0  0
  1  6  1  0     0  0
  2  9  1  0     0  0
  2 19  1  0     0  0
  3 10  1  0     0  0
  3 20  1  0     0  0
  4  9  2  0     0  0
  4 11  1  0     0  0
  5 11  2  0     0  0
  5 12  1  0     0  0
  6 21  2  0     0  0
  7 11  1  0     0  0
  7 13  1  0     0  0
  8 12  1  0     0  0
  9 14  1  0     0  0
 10 15  2  0     0  0
 10 16  1  0     0  0
 12 14  2  0     0  0
 13 17  2  0     0  0
 13 18  1  0     0  0
 14 21  1  0     0  0
 15 17  1  0     0  0
 16 18  2  0     0  0
 19 22  1  0     0  0
 22 23  1  0     0  0
 22 24  1  0     0  0
 23 25  1  0     0  0
 24 26  1  0     0  0
 25 27  1  0     0  0
 26 27  1  0     0  0
M  END
> <Compound >
12

> <standard_type>
pIC50

> <# Confs.>
25

> <canonical_smiles>
NC1=C(/C([H])=N/O)C(OCC2CCCCC2)=NC(NC3=CC=C(OC)C=C3)=N1

> <standard_relation>
=

> <predicted_activity_value>
5.6118987984294835

> <actual_activity_value>
5.080921907623926

> <Publication ID>
nan

> <standard_units>
nM

> hash
18056919525170555622

$$$$
11
XXILIB    08252103513D 0   0.00000     0.00000

 27 29  0     1  0            999 V2000
    0.2879   -2.2222   -2.6650 O   0  0  0  0  0  2           0  0  0
    1.3872   -0.0000    0.0000 O   0  0  0  0  0  2           0  0  0
   -0.9975    0.0072    7.6703 O   0  0  0  0  0  2           0  0  0
   -0.6533   -0.0000    1.1838 N   0  0  0  0  0  3           0  0  0
   -2.7097    0.0098   -0.0006 N   0  0  0  0  0  3           0  0  0
    0.5988   -0.9696   -3.1866 N   0  0  0  0  0  3           0  0  0
   -2.7277    0.0152    2.3509 N   0  0  0  0  0  3           0  0  0
   -2.8199    0.0363   -2.3398 N   0  0  0  0  0  3           0  0  0
    0.0000    0.0000    0.0000 C   0  0  0  0  0  4           0  0  0
   -1.5029    0.0118    6.3952 C   0  0  0  0  0  4           0  0  0
   -2.0025    0.0074    1.1522 C   0  0  0  0  0  4           0  0  0
   -2.0470   -0.0081   -1.1850 C   0  0  0  0  0  4           0  0  0
   -2.2954    0.0169    3.6794 C   0  0  0  0  0  4           0  0  0
   -0.6544    0.0002   -1.2262 C   0  0  0  0  0  4           0  0  0
   -2.8570    0.0224    6.0574 C   0  0  0  0  0  4           0  0  0
   -0.5486    0.0050    5.3750 C   0  0  0  0  0  4           0  0  0
   -3.2448    0.0255    4.7125 C   0  0  0  0  0  4           0  0  0
   -0.9395    0.0074    4.0324 C   0  0  0  0  0  4           0  0  0
    1.9738   -0.6504    1.1266 C   0  0  0  0  0  4           0  0  0
   -2.0704    0.0150    8.6122 C   0  0  0  0  0  4           0  0  0
    0.1372    0.0111   -2.4692 C   0  0  0  0  0  4           0  0  0
    3.3165   -1.2425    0.7068 C   0  0  2  0  0  4           0  0  0
    3.1493   -2.2678   -0.4276 C   0  0  0  0  0  4           0  0  0
    4.0219   -1.8765    1.9137 C   0  0  0  0  0  4           0  0  0
    4.4812   -2.9088   -0.8119 C   0  0  0  0  0  4           0  0  0
    5.3520   -2.5157    1.5225 C   0  0  0  0  0  4           0  0  0
    5.1791   -3.5279    0.3947 C   0  0  0  0  0  4           0  0  0
  1  6  1  0     0  0
  2  9  1  0     0  0
  2 19  1  0     0  0
  3 10  1  0     0  0
  3 20  1  0     0  0
  4  9  2  0     0  0
  4 11  1  0     0  0
  5 11  2  0     0  0
  5 12  1  0     0  0
  6 21  2  0     0  0
  7 11  1  0     0  0
  7 13  1  0     0  0
  8 12  1  0     0  0
  9 14  1  0     0  0
 10 15  2  0     0  0
 10 16  1  0     0  0
 12 14  2  0     0  0
 13 17  2  0     0  0
 13 18  1  0     0  0
 14 21  1  0     0  0
 15 17  1  0     0  0
 16 18  2  0     0  0
 19 22  1  0     0  0
 22 23  1  0     0  0
 22 24  1  0     0  0
 23 25  1  0     0  0
 24 26  1  0     0  0
 25 27  1  0     0  0
 26 27  1  0     0  0
M  END
> <Compound >
12

> <standard_type>
pIC50

> <# Confs.>
25

> <canonical_smiles>
NC1=C(/C([H])=N/O)C(OCC2CCCCC2)=NC(NC3=CC=C(OC)C=C3)=N1

> <standard_relation>
=

> <predicted_activity_value>
5.6118987984294835

> <actual_activity_value>
5.080921907623926

> <Publication ID>
nan

> <standard_units>
nM

> hash
18056919525170555622

$$$$
11
XXILIB    08252103513D 0   0.00000     0.00000

 27 29  0     1  0            999 V2000
    1.2268   -1.9118   -2.0643 O   0  0  0  0  0  2           0  0  0
    1.3872   -0.0000    0.0000 O   0  0  0  0  0  2           0  0  0
   -0.9892    0.0350    7.6675 O   0  0  0  0  0  2           0  0  0
   -0.6533   -0.0000    1.1838 N   0  0  0  0  0  3           0  0  0
   -2.7097    0.0098   -0.0006 N   0  0  0  0  0  3           0  0  0
    1.0141   -0.8354   -2.9209 N   0  0  0  0  0  3           0  0  0
   -2.7277    0.0152    2.3509 N   0  0  0  0  0  3           0  0  0
   -2.8199    0.0363   -2.3398 N   0  0  0  0  0  3           0  0  0
    0.0000    0.0000    0.0000 C   0  0  0  0  0  4           0  0  0
   -1.3448   -0.0152    6.3438 C   0  0  0  0  0  4           0  0  0
   -2.0025    0.0074    1.1522 C   0  0  0  0  0  4           0  0  0
   -2.0470   -0.0081   -1.1850 C   0  0  0  0  0  4           0  0  0
   -2.2954    0.0169    3.6794 C   0  0  0  0  0  4           0  0  0
   -0.6544    0.0002   -1.2262 C   0  0  0  0  0  4           0  0  0
   -0.6048   -0.6177    5.3254 C   0  0  0  0  0  4           0  0  0
   -2.5584    0.6006    6.0282 C   0  0  0  0  0  4           0  0  0
   -1.0790   -0.6000    4.0085 C   0  0  0  0  0  4           0  0  0
   -3.0289    0.6171    4.7115 C   0  0  0  0  0  4           0  0  0
    1.9738   -0.0000    1.3009 C   0  0  0  0  0  4           0  0  0
    0.2624   -0.6263    7.8540 C   0  0  0  0  0  4           0  0  0
    0.1372    0.0111   -2.4692 C   0  0  0  0  0  4           0  0  0
    3.4930   -0.0000    1.1538 C   0  0  2  0  0  4           0  0  0
    3.9841   -1.2398    0.3871 C   0  0  0  0  0  4           0  0  0
    4.1634    0.0886    2.5317 C   0  0  0  0  0  4           0  0  0
    5.5076   -1.2774    0.2884 C   0  0  0  0  0  4           0  0  0
    5.6860    0.0501    2.4258 C   0  0  0  0  0  4           0  0  0
    6.1653   -1.1796    1.6611 C   0  0  0  0  0  4           0  0  0
  1  6  1  0     0  0
  2  9  1  0     0  0
  2 19  1  0     0  0
  3 10  1  0     0  0
  3 20  1  0     0  0
  4  9  2  0     0  0
  4 11  1  0     0  0
  5 11  2  0     0  0
  5 12  1  0     0  0
  6 21  2  0     0  0
  7 11  1  0     0  0
  7 13  1  0     0  0
  8 12  1  0     0  0
  9 14  1  0     0  0
 10 15  2  0     0  0
 10 16  1  0     0  0
 12 14  2  0     0  0
 13 17  2  0     0  0
 13 18  1  0     0  0
 14 21  1  0     0  0
 15 17  1  0     0  0
 16 18  2  0     0  0
 19 22  1  0     0  0
 22 23  1  0     0  0
 22 24  1  0     0  0
 23 25  1  0     0  0
 24 26  1  0     0  0
 25 27  1  0     0  0
 26 27  1  0     0  0
M  END
> <Compound >
12

> <standard_type>
pIC50

> <# Confs.>
25

> <canonical_smiles>
NC1=C(/C([H])=N/O)C(OCC2CCCCC2)=NC(NC3=CC=C(OC)C=C3)=N1

> <standard_relation>
=

> <predicted_activity_value>
5.6118987984294835

> <actual_activity_value>
5.080921907623926

> <Publication ID>
nan

> <standard_units>
nM

> hash
18056919525170555622

$$$$
11
XXILIB    08252103513D 0   0.00000     0.00000

 27 29  0     1  0            999 V2000
    0.2879   -2.2222   -2.6650 O   0  0  0  0  0  2           0  0  0
    1.3872   -0.0000    0.0000 O   0  0  0  0  0  2           0  0  0
   -8.2410    0.0615    3.2945 O   0  0  0  0  0  2           0  0  0
   -0.6533   -0.0000    1.1838 N   0  0  0  0  0  3           0  0  0
   -2.7097    0.0098   -0.0006 N   0  0  0  0  0  3           0  0  0
    0.5988   -0.9696   -3.1866 N   0  0  0  0  0  3           0  0  0
   -2.7277    0.0152    2.3509 N   0  0  0  0  0  3           0  0  0
   -2.8199    0.0363   -2.3398 N   0  0  0  0  0  3           0  0  0
    0.0000    0.0000    0.0000 C   0  0  0  0  0  4           0  0  0
   -6.8798    0.0054    3.1364 C   0  0  0  0  0  4           0  0  0
   -2.0025    0.0074    1.1522 C   0  0  0  0  0  4           0  0  0
   -2.0470   -0.0081   -1.1850 C   0  0  0  0  0  4           0  0  0
   -4.1050    0.0235    2.5846 C   0  0  0  0  0  4           0  0  0
   -0.6544    0.0002   -1.2262 C   0  0  0  0  0  4           0  0  0
   -5.9822   -0.5920    4.0225 C   0  0  0  0  0  4           0  0  0
   -6.3884    0.6091    1.9763 C   0  0  0  0  0  4           0  0  0
   -4.6102   -0.5813    3.7455 C   0  0  0  0  0  4           0  0  0
   -5.0171    0.6186    1.7029 C   0  0  0  0  0  4           0  0  0
    1.9738   -0.0000    1.3009 C   0  0  0  0  0  4           0  0  0
   -8.6103   -0.5876    4.5115 C   0  0  0  0  0  4           0  0  0
    0.1372    0.0111   -2.4692 C   0  0  0  0  0  4           0  0  0
    3.4930   -0.0000    1.1538 C   0  0  2  0  0  4           0  0  0
    3.9841   -1.2398    0.3871 C   0  0  0  0  0  4           0  0  0
    4.1634    0.0886    2.5317 C   0  0  0  0  0  4           0  0  0
    5.5076   -1.2774    0.2884 C   0  0  0  0  0  4           0  0  0
    5.6860    0.0501    2.4258 C   0  0  0  0  0  4           0  0  0
    6.1653   -1.1796    1.6611 C   0  0  0  0  0  4           0  0  0
  1  6  1  0     0  0
  2  9  1  0     0  0
  2 19  1  0     0  0
  3 10  1  0     0  0
  3 20  1  0     0  0
  4  9  2  0     0  0
  4 11  1  0     0  0
  5 11  2  0     0  0
  5 12  1  0     0  0
  6 21  2  0     0  0
  7 11  1  0     0  0
  7 13  1  0     0  0
  8 12  1  0     0  0
  9 14  1  0     0  0
 10 15  2  0     0  0
 10 16  1  0     0  0
 12 14  2  0     0  0
 13 17  2  0     0  0
 13 18  1  0     0  0
 14 21  1  0     0  0
 15 17  1  0     0  0
 16 18  2  0     0  0
 19 22  1  0     0  0
 22 23  1  0     0  0
 22 24  1  0     0  0
 23 25  1  0     0  0
 24 26  1  0     0  0
 25 27  1  0     0  0
 26 27  1  0     0  0
M  END
> <Compound >
12

> <standard_type>
pIC50

> <# Confs.>
25

> <canonical_smiles>
NC1=C(/C([H])=N/O)C(OCC2CCCCC2)=NC(NC3=CC=C(OC)C=C3)=N1

> <standard_relation>
=

> <predicted_activity_value>
5.6118987984294835

> <actual_activity_value>
5.080921907623926

> <Publication ID>
nan

> <standard_units>
nM

> hash
18056919525170555622

$$$$
11
XXILIB    08252103513D 0   0.00000     0.00000

 27 29  0     1  0            999 V2000
    0.2879   -2.2222   -2.6650 O   0  0  0  0  0  2           0  0  0
    1.3872   -0.0000   -0.0000 O   0  0  0  0  0  2           0  0  0
   -1.0035    0.0357    7.6722 O   0  0  0  0  0  2           0  0  0
   -0.6533   -0.0000    1.1838 N   0  0  0  0  0  3           0  0  0
   -2.7097    0.0098   -0.0006 N   0  0  0  0  0  3           0  0  0
    0.5988   -0.9696   -3.1866 N   0  0  0  0  0  3           0  0  0
   -2.7277    0.0152    2.3509 N   0  0  0  0  0  3           0  0  0
   -2.8199    0.0363   -2.3398 N   0  0  0  0  0  3           0  0  0
    0.0000    0.0000    0.0000 C   0  0  0  0  0  4           0  0  0
   -1.3532    0.0715    6.3464 C   0  0  0  0  0  4           0  0  0
   -2.0025    0.0074    1.1522 C   0  0  0  0  0  4           0  0  0
   -2.0470   -0.0081   -1.1850 C   0  0  0  0  0  4           0  0  0
   -2.2954    0.0169    3.6794 C   0  0  0  0  0  4           0  0  0
   -0.6544    0.0002   -1.2262 C   0  0  0  0  0  4           0  0  0
   -0.6027    0.6521    5.3230 C   0  0  0  0  0  4           0  0  0
   -2.5719   -0.5358    6.0341 C   0  0  0  0  0  4           0  0  0
   -1.0722    0.6224    4.0047 C   0  0  0  0  0  4           0  0  0
   -3.0384   -0.5631    4.7162 C   0  0  0  0  0  4           0  0  0
    1.9738   -0.6504    1.1266 C   0  0  0  0  0  4           0  0  0
    0.2543    0.6861    7.8548 C   0  0  0  0  0  4           0  0  0
    0.1372    0.0111   -2.4692 C   0  0  0  0  0  4           0  0  0
    3.4930   -0.5769    0.9992 C   0  0  2  0  0  4           0  0  0
    3.9841   -1.2673   -0.2847 C   0  0  0  0  0  4           0  0  0
    4.1634   -1.1891    2.2369 C   0  0  0  0  0  4           0  0  0
    5.5076   -1.2505   -0.3889 C   0  0  0  0  0  4           0  0  0
    5.6860   -1.1695    2.1258 C   0  0  0  0  0  4           0  0  0
    6.1653   -1.8521    0.8488 C   0  0  0  0  0  4           0  0  0
  1  6  1  0     0  0
  2  9  1  0     0  0
  2 19  1  0     0  0
  3 10  1  0     0  0
  3 20  1  0     0  0
  4  9  2  0     0  0
  4 11  1  0     0  0
  5 11  2  0     0  0
  5 12  1  0     0  0
  6 21  2  0     0  0
  7 11  1  0     0  0
  7 13  1  0     0  0
  8 12  1  0     0  0
  9 14  1  0     0  0
 10 15  2  0     0  0
 10 16  1  0     0  0
 12 14  2  0     0  0
 13 17  2  0     0  0
 13 18  1  0     0  0
 14 21  1  0     0  0
 15 17  1  0     0  0
 16 18  2  0     0  0
 19 22  1  0     0  0
 22 23  1  0     0  0
 22 24  1  0     0  0
 23 25  1  0     0  0
 24 26  1  0     0  0
 25 27  1  0     0  0
 26 27  1  0     0  0
M  END
> <Compound >
12

> <standard_type>
pIC50

> <# Confs.>
25

> <canonical_smiles>
NC1=C(/C([H])=N/O)C(OCC2CCCCC2)=NC(NC3=CC=C(OC)C=C3)=N1

> <standard_relation>
=

> <predicted_activity_value>
5.6118987984294835

> <actual_activity_value>
5.080921907623926

> <Publication ID>
nan

> <standard_units>
nM

> hash
18056919525170555622

$$$$
11
XXILIB    08252103513D 0   0.00000     0.00000

 27 29  0     1  0            999 V2000
    1.2268   -1.9118   -2.0643 O   0  0  0  0  0  2           0  0  0
    1.3872   -0.0000    0.0000 O   0  0  0  0  0  2           0  0  0
   -0.9892    0.0350    7.6675 O   0  0  0  0  0  2           0  0  0
   -0.6533   -0.0000    1.1838 N   0  0  0  0  0  3           0  0  0
   -2.7097    0.0098   -0.0006 N   0  0  0  0  0  3           0  0  0
    1.0141   -0.8354   -2.9209 N   0  0  0  0  0  3           0  0  0
   -2.7277    0.0152    2.3509 N   0  0  0  0  0  3           0  0  0
   -2.8199    0.0363   -2.3398 N   0  0  0  0  0  3           0  0  0
    0.0000    0.0000    0.0000 C   0  0  0  0  0  4           0  0  0
   -1.3448   -0.0152    6.3438 C   0  0  0  0  0  4           0  0  0
   -2.0025    0.0074    1.1522 C   0  0  0  0  0  4           0  0  0
   -2.0470   -0.0081   -1.1850 C   0  0  0  0  0  4           0  0  0
   -2.2954    0.0169    3.6794 C   0  0  0  0  0  4           0  0  0
   -0.6544    0.0002   -1.2262 C   0  0  0  0  0  4           0  0  0
   -0.6048   -0.6177    5.3254 C   0  0  0  0  0  4           0  0  0
   -2.5584    0.6006    6.0282 C   0  0  0  0  0  4           0  0  0
   -1.0790   -0.6000    4.0085 C   0  0  0  0  0  4           0  0  0
   -3.0289    0.6171    4.7115 C   0  0  0  0  0  4           0  0  0
    1.9738   -0.0000    1.3009 C   0  0  0  0  0  4           0  0  0
    0.2624   -0.6263    7.8540 C   0  0  0  0  0  4           0  0  0
    0.1372    0.0111   -2.4692 C   0  0  0  0  0  4           0  0  0
    3.4930   -0.0000    1.1538 C   0  0  2  0  0  4           0  0  0
    4.1910   -0.0000    2.5246 C   0  0  0  0  0  4           0  0  0
    3.9485    1.1994    0.3112 C   0  0  0  0  0  4           0  0  0
    5.7107    0.0608    2.3858 C   0  0  0  0  0  4           0  0  0
    5.4683    1.2544    0.1769 C   0  0  0  0  0  4           0  0  0
    6.1536    1.2500    1.5396 C   0  0  0  0  0  4           0  0  0
  1  6  1  0     0  0
  2  9  1  0     0  0
  2 19  1  0     0  0
  3 10  1  0     0  0
  3 20  1  0     0  0
  4  9  2  0     0  0
  4 11  1  0     0  0
  5 11  2  0     0  0
  5 12  1  0     0  0
  6 21  2  0     0  0
  7 11  1  0     0  0
  7 13  1  0     0  0
  8 12  1  0     0  0
  9 14  1  0     0  0
 10 15  2  0     0  0
 10 16  1  0     0  0
 12 14  2  0     0  0
 13 17  2  0     0  0
 13 18  1  0     0  0
 14 21  1  0     0  0
 15 17  1  0     0  0
 16 18  2  0     0  0
 19 22  1  0     0  0
 22 23  1  0     0  0
 22 24  1  0     0  0
 23 25  1  0     0  0
 24 26  1  0     0  0
 25 27  1  0     0  0
 26 27  1  0     0  0
M  END
> <Compound >
12

> <standard_type>
pIC50

> <# Confs.>
25

> <canonical_smiles>
NC1=C(/C([H])=N/O)C(OCC2CCCCC2)=NC(NC3=CC=C(OC)C=C3)=N1

> <standard_relation>
=

> <predicted_activity_value>
5.6118987984294835

> <actual_activity_value>
5.080921907623926

> <Publication ID>
nan

> <standard_units>
nM

> hash
18056919525170555622

$$$$
11
XXILIB    08252103513D 0   0.00000     0.00000

 27 29  0     1  0            999 V2000
    0.2879   -2.2222   -2.6650 O   0  0  0  0  0  2           0  0  0
    1.3872   -0.0000    0.0000 O   0  0  0  0  0  2           0  0  0
   -8.2410    0.0615    3.2945 O   0  0  0  0  0  2           0  0  0
   -0.6533   -0.0000    1.1838 N   0  0  0  0  0  3           0  0  0
   -2.7097    0.0098   -0.0006 N   0  0  0  0  0  3           0  0  0
    0.5988   -0.9696   -3.1866 N   0  0  0  0  0  3           0  0  0
   -2.7277    0.0152    2.3509 N   0  0  0  0  0  3           0  0  0
   -2.8199    0.0363   -2.3398 N   0  0  0  0  0  3           0  0  0
    0.0000    0.0000    0.0000 C   0  0  0  0  0  4           0  0  0
   -6.8798    0.0054    3.1364 C   0  0  0  0  0  4           0  0  0
   -2.0025    0.0074    1.1522 C   0  0  0  0  0  4           0  0  0
   -2.0470   -0.0081   -1.1850 C   0  0  0  0  0  4           0  0  0
   -4.1050    0.0235    2.5846 C   0  0  0  0  0  4           0  0  0
   -0.6544    0.0002   -1.2262 C   0  0  0  0  0  4           0  0  0
   -5.9822   -0.5920    4.0225 C   0  0  0  0  0  4           0  0  0
   -6.3884    0.6091    1.9763 C   0  0  0  0  0  4           0  0  0
   -4.6102   -0.5813    3.7455 C   0  0  0  0  0  4           0  0  0
   -5.0171    0.6186    1.7029 C   0  0  0  0  0  4           0  0  0
    1.9738   -0.0000    1.3009 C   0  0  0  0  0  4           0  0  0
   -8.6103   -0.5876    4.5115 C   0  0  0  0  0  4           0  0  0
    0.1372    0.0111   -2.4692 C   0  0  0  0  0  4           0  0  0
    3.4930   -0.0000    1.1538 C   0  0  2  0  0  4           0  0  0
    3.9841    1.2398    0.3871 C   0  0  0  0  0  4           0  0  0
    3.9633   -1.2880    0.4640 C   0  0  0  0  0  4           0  0  0
    5.4975    1.2166    0.1835 C   0  0  0  0  0  4           0  0  0
    5.4766   -1.3044    0.2632 C   0  0  0  0  0  4           0  0  0
    5.9567   -0.0705   -0.4940 C   0  0  0  0  0  4           0  0  0
  1  6  1  0     0  0
  2  9  1  0     0  0
  2 19  1  0     0  0
  3 10  1  0     0  0
  3 20  1  0     0  0
  4  9  2  0     0  0
  4 11  1  0     0  0
  5 11  2  0     0  0
  5 12  1  0     0  0
  6 21  2  0     0  0
  7 11  1  0     0  0
  7 13  1  0     0  0
  8 12  1  0     0  0
  9 14  1  0     0  0
 10 15  2  0     0  0
 10 16  1  0     0  0
 12 14  2  0     0  0
 13 17  2  0     0  0
 13 18  1  0     0  0
 14 21  1  0     0  0
 15 17  1  0     0  0
 16 18  2  0     0  0
 19 22  1  0     0  0
 22 23  1  0     0  0
 22 24  1  0     0  0
 23 25  1  0     0  0
 24 26  1  0     0  0
 25 27  1  0     0  0
 26 27  1  0     0  0
M  END
> <Compound >
12

> <standard_type>
pIC50

> <# Confs.>
25

> <canonical_smiles>
NC1=C(/C([H])=N/O)C(OCC2CCCCC2)=NC(NC3=CC=C(OC)C=C3)=N1

> <standard_relation>
=

> <predicted_activity_value>
5.6118987984294835

> <actual_activity_value>
5.080921907623926

> <Publication ID>
nan

> <standard_units>
nM

> hash
18056919525170555622

$$$$
11
XXILIB    08252103513D 0   0.00000     0.00000

 27 29  0     1  0            999 V2000
    1.2268   -1.9118   -2.0643 O   0  0  0  0  0  2           0  0  0
    1.3872   -0.0000    0.0000 O   0  0  0  0  0  2           0  0  0
   -0.9892    0.0350    7.6675 O   0  0  0  0  0  2           0  0  0
   -0.6533   -0.0000    1.1838 N   0  0  0  0  0  3           0  0  0
   -2.7097    0.0098   -0.0006 N   0  0  0  0  0  3           0  0  0
    1.0141   -0.8354   -2.9209 N   0  0  0  0  0  3           0  0  0
   -2.7277    0.0152    2.3509 N   0  0  0  0  0  3           0  0  0
   -2.8199    0.0363   -2.3398 N   0  0  0  0  0  3           0  0  0
    0.0000    0.0000    0.0000 C   0  0  0  0  0  4           0  0  0
   -1.3448   -0.0152    6.3438 C   0  0  0  0  0  4           0  0  0
   -2.0025    0.0074    1.1522 C   0  0  0  0  0  4           0  0  0
   -2.0470   -0.0081   -1.1850 C   0  0  0  0  0  4           0  0  0
   -2.2954    0.0169    3.6794 C   0  0  0  0  0  4           0  0  0
   -0.6544    0.0002   -1.2262 C   0  0  0  0  0  4           0  0  0
   -0.6048   -0.6177    5.3254 C   0  0  0  0  0  4           0  0  0
   -2.5584    0.6006    6.0282 C   0  0  0  0  0  4           0  0  0
   -1.0790   -0.6000    4.0085 C   0  0  0  0  0  4           0  0  0
   -3.0289    0.6171    4.7115 C   0  0  0  0  0  4           0  0  0
    1.9738   -0.0000    1.3009 C   0  0  0  0  0  4           0  0  0
    0.2624   -0.6263    7.8540 C   0  0  0  0  0  4           0  0  0
    0.1372    0.0111   -2.4692 C   0  0  0  0  0  4           0  0  0
    3.4930   -0.0000    1.1538 C   0  0  2  0  0  4           0  0  0
    3.9841    1.2398    0.3871 C   0  0  0  0  0  4           0  0  0
    3.9633   -1.2880    0.4640 C   0  0  0  0  0  4           0  0  0
    5.4975    1.2166    0.1835 C   0  0  0  0  0  4           0  0  0
    5.4766   -1.3044    0.2632 C   0  0  0  0  0  4           0  0  0
    5.9567   -0.0705   -0.4940 C   0  0  0  0  0  4           0  0  0
  1  6  1  0     0  0
  2  9  1  0     0  0
  2 19  1  0     0  0
  3 10  1  0     0  0
  3 20  1  0     0  0
  4  9  2  0     0  0
  4 11  1  0     0  0
  5 11  2  0     0  0
  5 12  1  0     0  0
  6 21  2  0     0  0
  7 11  1  0     0  0
  7 13  1  0     0  0
  8 12  1  0     0  0
  9 14  1  0     0  0
 10 15  2  0     0  0
 10 16  1  0     0  0
 12 14  2  0     0  0
 13 17  2  0     0  0
 13 18  1  0     0  0
 14 21  1  0     0  0
 15 17  1  0     0  0
 16 18  2  0     0  0
 19 22  1  0     0  0
 22 23  1  0     0  0
 22 24  1  0     0  0
 23 25  1  0     0  0
 24 26  1  0     0  0
 25 27  1  0     0  0
 26 27  1  0     0  0
M  END
> <Compound >
12

> <standard_type>
pIC50

> <# Confs.>
25

> <canonical_smiles>
NC1=C(/C([H])=N/O)C(OCC2CCCCC2)=NC(NC3=CC=C(OC)C=C3)=N1

> <standard_relation>
=

> <predicted_activity_value>
5.6118987984294835

> <actual_activity_value>
5.080921907623926

> <Publication ID>
nan

> <standard_units>
nM

> hash
18056919525170555622

$$$$
11
XXILIB    08252103513D 0   0.00000     0.00000

 27 29  0     1  0            999 V2000
    0.2879   -2.2222   -2.6650 O   0  0  0  0  0  2           0  0  0
    1.3872   -0.0000    0.0000 O   0  0  0  0  0  2           0  0  0
   -8.2410    0.0615    3.2945 O   0  0  0  0  0  2           0  0  0
   -0.6533   -0.0000    1.1838 N   0  0  0  0  0  3           0  0  0
   -2.7097    0.0098   -0.0006 N   0  0  0  0  0  3           0  0  0
    0.5988   -0.9696   -3.1866 N   0  0  0  0  0  3           0  0  0
   -2.7277    0.0152    2.3509 N   0  0  0  0  0  3           0  0  0
   -2.8199    0.0363   -2.3398 N   0  0  0  0  0  3           0  0  0
    0.0000    0.0000    0.0000 C   0  0  0  0  0  4           0  0  0
   -6.8798    0.0054    3.1364 C   0  0  0  0  0  4           0  0  0
   -2.0025    0.0074    1.1522 C   0  0  0  0  0  4           0  0  0
   -2.0470   -0.0081   -1.1850 C   0  0  0  0  0  4           0  0  0
   -4.1050    0.0235    2.5846 C   0  0  0  0  0  4           0  0  0
   -0.6544    0.0002   -1.2262 C   0  0  0  0  0  4           0  0  0
   -5.9822   -0.5920    4.0225 C   0  0  0  0  0  4           0  0  0
   -6.3884    0.6091    1.9763 C   0  0  0  0  0  4           0  0  0
   -4.6102   -0.5813    3.7455 C   0  0  0  0  0  4           0  0  0
   -5.0171    0.6186    1.7029 C   0  0  0  0  0  4           0  0  0
    1.9738   -0.0000    1.3009 C   0  0  0  0  0  4           0  0  0
   -8.6103   -0.5876    4.5115 C   0  0  0  0  0  4           0  0  0
    0.1372    0.0111   -2.4692 C   0  0  0  0  0  4           0  0  0
    3.4930   -0.0000    1.1538 C   0  0  2  0  0  4           0  0  0
    4.1910   -0.0000    2.5246 C   0  0  0  0  0  4           0  0  0
    3.9485    1.1994    0.3112 C   0  0  0  0  0  4           0  0  0
    5.7107    0.0608    2.3858 C   0  0  0  0  0  4           0  0  0
    5.4683    1.2544    0.1769 C   0  0  0  0  0  4           0  0  0
    6.1536    1.2500    1.5396 C   0  0  0  0  0  4           0  0  0
  1  6  1  0     0  0
  2  9  1  0     0  0
  2 19  1  0     0  0
  3 10  1  0     0  0
  3 20  1  0     0  0
  4  9  2  0     0  0
  4 11  1  0     0  0
  5 11  2  0     0  0
  5 12  1  0     0  0
  6 21  2  0     0  0
  7 11  1  0     0  0
  7 13  1  0     0  0
  8 12  1  0     0  0
  9 14  1  0     0  0
 10 15  2  0     0  0
 10 16  1  0     0  0
 12 14  2  0     0  0
 13 17  2  0     0  0
 13 18  1  0     0  0
 14 21  1  0     0  0
 15 17  1  0     0  0
 16 18  2  0     0  0
 19 22  1  0     0  0
 22 23  1  0     0  0
 22 24  1  0     0  0
 23 25  1  0     0  0
 24 26  1  0     0  0
 25 27  1  0     0  0
 26 27  1  0     0  0
M  END
> <Compound >
12

> <standard_type>
pIC50

> <# Confs.>
25

> <canonical_smiles>
NC1=C(/C([H])=N/O)C(OCC2CCCCC2)=NC(NC3=CC=C(OC)C=C3)=N1

> <standard_relation>
=

> <predicted_activity_value>
5.6118987984294835

> <actual_activity_value>
5.080921907623926

> <Publication ID>
nan

> <standard_units>
nM

> hash
18056919525170555622

$$$$
11
XXILIB    08252103513D 0   0.00000     0.00000

 27 29  0     1  0            999 V2000
    0.2330    2.2478   -2.6606 O   0  0  0  0  0  2           0  0  0
    1.3872   -0.0000    0.0000 O   0  0  0  0  0  2           0  0  0
   -0.9902    0.0089    7.6679 O   0  0  0  0  0  2           0  0  0
   -0.6533   -0.0000    1.1838 N   0  0  0  0  0  3           0  0  0
   -2.7097    0.0098   -0.0006 N   0  0  0  0  0  3           0  0  0
    0.5841    1.0044   -3.1785 N   0  0  0  0  0  3           0  0  0
   -2.7277    0.0152    2.3509 N   0  0  0  0  0  3           0  0  0
   -2.8199    0.0363   -2.3398 N   0  0  0  0  0  3           0  0  0
    0.0000    0.0000    0.0000 C   0  0  0  0  0  4           0  0  0
   -1.4877   -0.0304    6.3903 C   0  0  0  0  0  4           0  0  0
   -2.0025    0.0074    1.1522 C   0  0  0  0  0  4           0  0  0
   -2.0470   -0.0081   -1.1850 C   0  0  0  0  0  4           0  0  0
   -2.2954    0.0169    3.6794 C   0  0  0  0  0  4           0  0  0
   -0.6544    0.0002   -1.2262 C   0  0  0  0  0  4           0  0  0
   -2.6963   -0.6129    6.0060 C   0  0  0  0  0  4           0  0  0
   -0.6867    0.5752    5.4191 C   0  0  0  0  0  4           0  0  0
   -3.0925   -0.5868    4.6637 C   0  0  0  0  0  4           0  0  0
   -1.0851    0.5989    4.0790 C   0  0  0  0  0  4           0  0  0
    1.9738   -0.0000    1.3009 C   0  0  0  0  0  4           0  0  0
   -1.8991   -0.6401    8.5573 C   0  0  0  0  0  4           0  0  0
    0.1372    0.0111   -2.4692 C   0  0  0  0  0  4           0  0  0
    3.4930   -0.0000    1.1538 C   0  0  2  0  0  4           0  0  0
    3.9841   -1.2398    0.3871 C   0  0  0  0  0  4           0  0  0
    4.1634    0.0886    2.5317 C   0  0  0  0  0  4           0  0  0
    5.5076   -1.2774    0.2884 C   0  0  0  0  0  4           0  0  0
    5.6860    0.0501    2.4258 C   0  0  0  0  0  4           0  0  0
    6.1653   -1.1796    1.6611 C   0  0  0  0  0  4           0  0  0
  1  6  1  0     0  0
  2  9  1  0     0  0
  2 19  1  0     0  0
  3 10  1  0     0  0
  3 20  1  0     0  0
  4  9  2  0     0  0
  4 11  1  0     0  0
  5 11  2  0     0  0
  5 12  1  0     0  0
  6 21  2  0     0  0
  7 11  1  0     0  0
  7 13  1  0     0  0
  8 12  1  0     0  0
  9 14  1  0     0  0
 10 15  2  0     0  0
 10 16  1  0     0  0
 12 14  2  0     0  0
 13 17  2  0     0  0
 13 18  1  0     0  0
 14 21  1  0     0  0
 15 17  1  0     0  0
 16 18  2  0     0  0
 19 22  1  0     0  0
 22 23  1  0     0  0
 22 24  1  0     0  0
 23 25  1  0     0  0
 24 26  1  0     0  0
 25 27  1  0     0  0
 26 27  1  0     0  0
M  END
> <Compound >
12

> <standard_type>
pIC50

> <# Confs.>
25

> <canonical_smiles>
NC1=C(/C([H])=N/O)C(OCC2CCCCC2)=NC(NC3=CC=C(OC)C=C3)=N1

> <standard_relation>
=

> <predicted_activity_value>
5.6118987984294835

> <actual_activity_value>
5.080921907623926

> <Publication ID>
nan

> <standard_units>
nM

> hash
18056919525170555622

$$$$
11
XXILIB    08252103513D 0   0.00000     0.00000

 27 29  0     1  0            999 V2000
    0.2879   -2.2222   -2.6650 O   0  0  0  0  0  2           0  0  0
    1.3872   -0.0000   -0.0000 O   0  0  0  0  0  2           0  0  0
   -1.0035    0.0357    7.6722 O   0  0  0  0  0  2           0  0  0
   -0.6533   -0.0000    1.1838 N   0  0  0  0  0  3           0  0  0
   -2.7097    0.0098   -0.0006 N   0  0  0  0  0  3           0  0  0
    0.5988   -0.9696   -3.1866 N   0  0  0  0  0  3           0  0  0
   -2.7277    0.0152    2.3509 N   0  0  0  0  0  3           0  0  0
   -2.8199    0.0363   -2.3398 N   0  0  0  0  0  3           0  0  0
    0.0000    0.0000    0.0000 C   0  0  0  0  0  4           0  0  0
   -1.3532    0.0715    6.3464 C   0  0  0  0  0  4           0  0  0
   -2.0025    0.0074    1.1522 C   0  0  0  0  0  4           0  0  0
   -2.0470   -0.0081   -1.1850 C   0  0  0  0  0  4           0  0  0
   -2.2954    0.0169    3.6794 C   0  0  0  0  0  4           0  0  0
   -0.6544    0.0002   -1.2262 C   0  0  0  0  0  4           0  0  0
   -0.6027    0.6521    5.3230 C   0  0  0  0  0  4           0  0  0
   -2.5719   -0.5358    6.0341 C   0  0  0  0  0  4           0  0  0
   -1.0722    0.6224    4.0047 C   0  0  0  0  0  4           0  0  0
   -3.0384   -0.5631    4.7162 C   0  0  0  0  0  4           0  0  0
    1.9738   -0.6504    1.1266 C   0  0  0  0  0  4           0  0  0
    0.2543    0.6861    7.8548 C   0  0  0  0  0  4           0  0  0
    0.1372    0.0111   -2.4692 C   0  0  0  0  0  4           0  0  0
    3.4930   -0.5769    0.9992 C   0  0  2  0  0  4           0  0  0
    3.9841    0.8802    0.9552 C   0  0  0  0  0  4           0  0  0
    3.9633   -1.3474   -0.2422 C   0  0  0  0  0  4           0  0  0
    5.4975    0.9618    0.7672 C   0  0  0  0  0  4           0  0  0
    5.4766   -1.2613   -0.4243 C   0  0  0  0  0  4           0  0  0
    5.9567    0.1859   -0.4630 C   0  0  0  0  0  4           0  0  0
  1  6  1  0     0  0
  2  9  1  0     0  0
  2 19  1  0     0  0
  3 10  1  0     0  0
  3 20  1  0     0  0
  4  9  2  0     0  0
  4 11  1  0     0  0
  5 11  2  0     0  0
  5 12  1  0     0  0
  6 21  2  0     0  0
  7 11  1  0     0  0
  7 13  1  0     0  0
  8 12  1  0     0  0
  9 14  1  0     0  0
 10 15  2  0     0  0
 10 16  1  0     0  0
 12 14  2  0     0  0
 13 17  2  0     0  0
 13 18  1  0     0  0
 14 21  1  0     0  0
 15 17  1  0     0  0
 16 18  2  0     0  0
 19 22  1  0     0  0
 22 23  1  0     0  0
 22 24  1  0     0  0
 23 25  1  0     0  0
 24 26  1  0     0  0
 25 27  1  0     0  0
 26 27  1  0     0  0
M  END
> <Compound >
12

> <standard_type>
pIC50

> <# Confs.>
25

> <canonical_smiles>
NC1=C(/C([H])=N/O)C(OCC2CCCCC2)=NC(NC3=CC=C(OC)C=C3)=N1

> <standard_relation>
=

> <predicted_activity_value>
5.6118987984294835

> <actual_activity_value>
5.080921907623926

> <Publication ID>
nan

> <standard_units>
nM

> hash
18056919525170555622

$$$$
11
XXILIB    08252103513D 0   0.00000     0.00000

 27 29  0     1  0            999 V2000
    0.2330    2.2478   -2.6606 O   0  0  0  0  0  2           0  0  0
    1.3872   -0.0000    0.0000 O   0  0  0  0  0  2           0  0  0
   -1.0045    0.0095    7.6726 O   0  0  0  0  0  2           0  0  0
   -0.6533   -0.0000    1.1838 N   0  0  0  0  0  3           0  0  0
   -2.7097    0.0098   -0.0006 N   0  0  0  0  0  3           0  0  0
    0.5841    1.0044   -3.1785 N   0  0  0  0  0  3           0  0  0
   -2.7277    0.0152    2.3509 N   0  0  0  0  0  3           0  0  0
   -2.8199    0.0363   -2.3398 N   0  0  0  0  0  3           0  0  0
    0.0000    0.0000    0.0000 C   0  0  0  0  0  4           0  0  0
   -1.4960    0.0563    6.3929 C   0  0  0  0  0  4           0  0  0
   -2.0025    0.0074    1.1522 C   0  0  0  0  0  4           0  0  0
   -2.0470   -0.0081   -1.1850 C   0  0  0  0  0  4           0  0  0
   -2.2954    0.0169    3.6794 C   0  0  0  0  0  4           0  0  0
   -0.6544    0.0002   -1.2262 C   0  0  0  0  0  4           0  0  0
   -2.6941    0.6570    6.0036 C   0  0  0  0  0  4           0  0  0
   -0.7001   -0.5612    5.4251 C   0  0  0  0  0  4           0  0  0
   -3.0857    0.6357    4.6599 C   0  0  0  0  0  4           0  0  0
   -1.0946   -0.5813    4.0837 C   0  0  0  0  0  4           0  0  0
    1.9738   -0.0000    1.3009 C   0  0  0  0  0  4           0  0  0
   -1.9073    0.6723    8.5582 C   0  0  0  0  0  4           0  0  0
    0.1372    0.0111   -2.4692 C   0  0  0  0  0  4           0  0  0
    3.4930   -0.0000    1.1538 C   0  0  2  0  0  4           0  0  0
    3.9841   -1.2398    0.3871 C   0  0  0  0  0  4           0  0  0
    4.1634    0.0886    2.5317 C   0  0  0  0  0  4           0  0  0
    5.5076   -1.2774    0.2884 C   0  0  0  0  0  4           0  0  0
    5.6860    0.0501    2.4258 C   0  0  0  0  0  4           0  0  0
    6.1653   -1.1796    1.6611 C   0  0  0  0  0  4           0  0  0
  1  6  1  0     0  0
  2  9  1  0     0  0
  2 19  1  0     0  0
  3 10  1  0     0  0
  3 20  1  0     0  0
  4  9  2  0     0  0
  4 11  1  0     0  0
  5 11  2  0     0  0
  5 12  1  0     0  0
  6 21  2  0     0  0
  7 11  1  0     0  0
  7 13  1  0     0  0
  8 12  1  0     0  0
  9 14  1  0     0  0
 10 15  2  0     0  0
 10 16  1  0     0  0
 12 14  2  0     0  0
 13 17  2  0     0  0
 13 18  1  0     0  0
 14 21  1  0     0  0
 15 17  1  0     0  0
 16 18  2  0     0  0
 19 22  1  0     0  0
 22 23  1  0     0  0
 22 24  1  0     0  0
 23 25  1  0     0  0
 24 26  1  0     0  0
 25 27  1  0     0  0
 26 27  1  0     0  0
M  END
> <Compound >
12

> <standard_type>
pIC50

> <# Confs.>
25

> <canonical_smiles>
NC1=C(/C([H])=N/O)C(OCC2CCCCC2)=NC(NC3=CC=C(OC)C=C3)=N1

> <standard_relation>
=

> <predicted_activity_value>
5.6118987984294835

> <actual_activity_value>
5.080921907623926

> <Publication ID>
nan

> <standard_units>
nM

> hash
18056919525170555622

$$$$
11
XXILIB    08252103513D 0   0.00000     0.00000

 27 29  0     1  0            999 V2000
    0.2879   -2.2222   -2.6650 O   0  0  0  0  0  2           0  0  0
    1.3872   -0.0000   -0.0000 O   0  0  0  0  0  2           0  0  0
   -1.0035    0.0357    7.6722 O   0  0  0  0  0  2           0  0  0
   -0.6533   -0.0000    1.1838 N   0  0  0  0  0  3           0  0  0
   -2.7097    0.0098   -0.0006 N   0  0  0  0  0  3           0  0  0
    0.5988   -0.9696   -3.1866 N   0  0  0  0  0  3           0  0  0
   -2.7277    0.0152    2.3509 N   0  0  0  0  0  3           0  0  0
   -2.8199    0.0363   -2.3398 N   0  0  0  0  0  3           0  0  0
    0.0000    0.0000    0.0000 C   0  0  0  0  0  4           0  0  0
   -1.3532    0.0715    6.3464 C   0  0  0  0  0  4           0  0  0
   -2.0025    0.0074    1.1522 C   0  0  0  0  0  4           0  0  0
   -2.0470   -0.0081   -1.1850 C   0  0  0  0  0  4           0  0  0
   -2.2954    0.0169    3.6794 C   0  0  0  0  0  4           0  0  0
   -0.6544    0.0002   -1.2262 C   0  0  0  0  0  4           0  0  0
   -0.6027    0.6521    5.3230 C   0  0  0  0  0  4           0  0  0
   -2.5719   -0.5358    6.0341 C   0  0  0  0  0  4           0  0  0
   -1.0722    0.6224    4.0047 C   0  0  0  0  0  4           0  0  0
   -3.0384   -0.5631    4.7162 C   0  0  0  0  0  4           0  0  0
    1.9738   -0.6504    1.1266 C   0  0  0  0  0  4           0  0  0
    0.2543    0.6861    7.8548 C   0  0  0  0  0  4           0  0  0
    0.1372    0.0111   -2.4692 C   0  0  0  0  0  4           0  0  0
    3.4930   -0.5769    0.9992 C   0  0  2  0  0  4           0  0  0
    4.1910   -1.2623    2.1863 C   0  0  0  0  0  4           0  0  0
    3.9485    0.8831    0.8692 C   0  0  0  0  0  4           0  0  0
    5.7107   -1.1402    2.0965 C   0  0  0  0  0  4           0  0  0
    5.4683    0.9979    0.7804 C   0  0  0  0  0  4           0  0  0
    6.1536    0.3128    1.9583 C   0  0  0  0  0  4           0  0  0
  1  6  1  0     0  0
  2  9  1  0     0  0
  2 19  1  0     0  0
  3 10  1  0     0  0
  3 20  1  0     0  0
  4  9  2  0     0  0
  4 11  1  0     0  0
  5 11  2  0     0  0
  5 12  1  0     0  0
  6 21  2  0     0  0
  7 11  1  0     0  0
  7 13  1  0     0  0
  8 12  1  0     0  0
  9 14  1  0     0  0
 10 15  2  0     0  0
 10 16  1  0     0  0
 12 14  2  0     0  0
 13 17  2  0     0  0
 13 18  1  0     0  0
 14 21  1  0     0  0
 15 17  1  0     0  0
 16 18  2  0     0  0
 19 22  1  0     0  0
 22 23  1  0     0  0
 22 24  1  0     0  0
 23 25  1  0     0  0
 24 26  1  0     0  0
 25 27  1  0     0  0
 26 27  1  0     0  0
M  END
> <Compound >
12

> <standard_type>
pIC50

> <# Confs.>
25

> <canonical_smiles>
NC1=C(/C([H])=N/O)C(OCC2CCCCC2)=NC(NC3=CC=C(OC)C=C3)=N1

> <standard_relation>
=

> <predicted_activity_value>
5.6118987984294835

> <actual_activity_value>
5.080921907623926

> <Publication ID>
nan

> <standard_units>
nM

> hash
18056919525170555622

$$$$
11
XXILIB    08252103513D 0   0.00000     0.00000

 27 29  0     1  0            999 V2000
    0.2879   -2.2222   -2.6650 O   0  0  0  0  0  2           0  0  0
    1.3872   -0.0000    0.0000 O   0  0  0  0  0  2           0  0  0
   -0.9902    0.0089    7.6679 O   0  0  0  0  0  2           0  0  0
   -0.6533   -0.0000    1.1838 N   0  0  0  0  0  3           0  0  0
   -2.7097    0.0098   -0.0006 N   0  0  0  0  0  3           0  0  0
    0.5988   -0.9696   -3.1866 N   0  0  0  0  0  3           0  0  0
   -2.7277    0.0152    2.3509 N   0  0  0  0  0  3           0  0  0
   -2.8199    0.0363   -2.3398 N   0  0  0  0  0  3           0  0  0
    0.0000    0.0000    0.0000 C   0  0  0  0  0  4           0  0  0
   -1.4877   -0.0304    6.3903 C   0  0  0  0  0  4           0  0  0
   -2.0025    0.0074    1.1522 C   0  0  0  0  0  4           0  0  0
   -2.0470   -0.0081   -1.1850 C   0  0  0  0  0  4           0  0  0
   -2.2954    0.0169    3.6794 C   0  0  0  0  0  4           0  0  0
   -0.6544    0.0002   -1.2262 C   0  0  0  0  0  4           0  0  0
   -2.6963   -0.6129    6.0060 C   0  0  0  0  0  4           0  0  0
   -0.6867    0.5752    5.4191 C   0  0  0  0  0  4           0  0  0
   -3.0925   -0.5868    4.6637 C   0  0  0  0  0  4           0  0  0
   -1.0851    0.5989    4.0790 C   0  0  0  0  0  4           0  0  0
    1.9738   -0.6504    1.1266 C   0  0  0  0  0  4           0  0  0
   -0.1860   -1.1465    7.9059 C   0  0  0  0  0  4           0  0  0
    0.1372    0.0111   -2.4692 C   0  0  0  0  0  4           0  0  0
    3.3165   -1.2425    0.7068 C   0  0  2  0  0  4           0  0  0
    4.2795   -0.1532    0.2047 C   0  0  0  0  0  4           0  0  0
    3.1127   -2.3241   -0.3631 C   0  0  0  0  0  4           0  0  0
    5.6036   -0.7452   -0.2736 C   0  0  0  0  0  4           0  0  0
    4.4400   -2.9111   -0.8369 C   0  0  0  0  0  4           0  0  0
    5.3910   -1.8251   -1.3295 C   0  0  0  0  0  4           0  0  0
  1  6  1  0     0  0
  2  9  1  0     0  0
  2 19  1  0     0  0
  3 10  1  0     0  0
  3 20  1  0     0  0
  4  9  2  0     0  0
  4 11  1  0     0  0
  5 11  2  0     0  0
  5 12  1  0     0  0
  6 21  2  0     0  0
  7 11  1  0     0  0
  7 13  1  0     0  0
  8 12  1  0     0  0
  9 14  1  0     0  0
 10 15  2  0     0  0
 10 16  1  0     0  0
 12 14  2  0     0  0
 13 17  2  0     0  0
 13 18  1  0     0  0
 14 21  1  0     0  0
 15 17  1  0     0  0
 16 18  2  0     0  0
 19 22  1  0     0  0
 22 23  1  0     0  0
 22 24  1  0     0  0
 23 25  1  0     0  0
 24 26  1  0     0  0
 25 27  1  0     0  0
 26 27  1  0     0  0
M  END
> <Compound >
12

> <standard_type>
pIC50

> <# Confs.>
25

> <canonical_smiles>
NC1=C(/C([H])=N/O)C(OCC2CCCCC2)=NC(NC3=CC=C(OC)C=C3)=N1

> <standard_relation>
=

> <predicted_activity_value>
5.6118987984294835

> <actual_activity_value>
5.080921907623926

> <Publication ID>
nan

> <standard_units>
nM

> hash
18056919525170555622

$$$$
11
XXILIB    08252103513D 0   0.00000     0.00000

 27 29  0     1  0            999 V2000
    1.1792    1.9594   -2.0605 O   0  0  0  0  0  2           0  0  0
    1.3872   -0.0000    0.0000 O   0  0  0  0  0  2           0  0  0
   -0.9902    0.0089    7.6679 O   0  0  0  0  0  2           0  0  0
   -0.6533   -0.0000    1.1838 N   0  0  0  0  0  3           0  0  0
   -2.7097    0.0098   -0.0006 N   0  0  0  0  0  3           0  0  0
    1.0014    0.8742   -2.9139 N   0  0  0  0  0  3           0  0  0
   -2.7277    0.0152    2.3509 N   0  0  0  0  0  3           0  0  0
   -2.8199    0.0363   -2.3398 N   0  0  0  0  0  3           0  0  0
    0.0000    0.0000    0.0000 C   0  0  0  0  0  4           0  0  0
   -1.4877   -0.0304    6.3903 C   0  0  0  0  0  4           0  0  0
   -2.0025    0.0074    1.1522 C   0  0  0  0  0  4           0  0  0
   -2.0470   -0.0081   -1.1850 C   0  0  0  0  0  4           0  0  0
   -2.2954    0.0169    3.6794 C   0  0  0  0  0  4           0  0  0
   -0.6544    0.0002   -1.2262 C   0  0  0  0  0  4           0  0  0
   -2.6963   -0.6129    6.0060 C   0  0  0  0  0  4           0  0  0
   -0.6867    0.5752    5.4191 C   0  0  0  0  0  4           0  0  0
   -3.0925   -0.5868    4.6637 C   0  0  0  0  0  4           0  0  0
   -1.0851    0.5989    4.0790 C   0  0  0  0  0  4           0  0  0
    1.9738   -0.0000    1.3009 C   0  0  0  0  0  4           0  0  0
   -1.8991   -0.6401    8.5573 C   0  0  0  0  0  4           0  0  0
    0.1372    0.0111   -2.4692 C   0  0  0  0  0  4           0  0  0
    3.4930   -0.0000    1.1538 C   0  0  2  0  0  4           0  0  0
    4.1910   -0.0000    2.5246 C   0  0  0  0  0  4           0  0  0
    3.9485    1.1994    0.3112 C   0  0  0  0  0  4           0  0  0
    5.7107    0.0608    2.3858 C   0  0  0  0  0  4           0  0  0
    5.4683    1.2544    0.1769 C   0  0  0  0  0  4           0  0  0
    6.1536    1.2500    1.5396 C   0  0  0  0  0  4           0  0  0
  1  6  1  0     0  0
  2  9  1  0     0  0
  2 19  1  0     0  0
  3 10  1  0     0  0
  3 20  1  0     0  0
  4  9  2  0     0  0
  4 11  1  0     0  0
  5 11  2  0     0  0
  5 12  1  0     0  0
  6 21  2  0     0  0
  7 11  1  0     0  0
  7 13  1  0     0  0
  8 12  1  0     0  0
  9 14  1  0     0  0
 10 15  2  0     0  0
 10 16  1  0     0  0
 12 14  2  0     0  0
 13 17  2  0     0  0
 13 18  1  0     0  0
 14 21  1  0     0  0
 15 17  1  0     0  0
 16 18  2  0     0  0
 19 22  1  0     0  0
 22 23  1  0     0  0
 22 24  1  0     0  0
 23 25  1  0     0  0
 24 26  1  0     0  0
 25 27  1  0     0  0
 26 27  1  0     0  0
M  END
> <Compound >
12

> <standard_type>
pIC50

> <# Confs.>
25

> <canonical_smiles>
NC1=C(/C([H])=N/O)C(OCC2CCCCC2)=NC(NC3=CC=C(OC)C=C3)=N1

> <standard_relation>
=

> <predicted_activity_value>
5.6118987984294835

> <actual_activity_value>
5.080921907623926

> <Publication ID>
nan

> <standard_units>
nM

> hash
18056919525170555622

$$$$
11
XXILIB    08252103513D 0   0.00000     0.00000

 27 29  0     1  0            999 V2000
    0.2879   -2.2222   -2.6650 O   0  0  0  0  0  2           0  0  0
    1.3872   -0.0000    0.0000 O   0  0  0  0  0  2           0  0  0
   -8.2436    0.0620    3.2797 O   0  0  0  0  0  2           0  0  0
   -0.6533   -0.0000    1.1838 N   0  0  0  0  0  3           0  0  0
   -2.7097    0.0098   -0.0006 N   0  0  0  0  0  3           0  0  0
    0.5988   -0.9696   -3.1866 N   0  0  0  0  0  3           0  0  0
   -2.7277    0.0152    2.3509 N   0  0  0  0  0  3           0  0  0
   -2.8199    0.0363   -2.3398 N   0  0  0  0  0  3           0  0  0
    0.0000    0.0000    0.0000 C   0  0  0  0  0  4           0  0  0
   -6.8808    0.0920    3.1269 C   0  0  0  0  0  4           0  0  0
   -2.0025    0.0074    1.1522 C   0  0  0  0  0  4           0  0  0
   -2.0470   -0.0081   -1.1850 C   0  0  0  0  0  4           0  0  0
   -4.1050    0.0235    2.5846 C   0  0  0  0  0  4           0  0  0
   -0.6544    0.0002   -1.2262 C   0  0  0  0  0  4           0  0  0
   -5.9761    0.6777    4.0135 C   0  0  0  0  0  4           0  0  0
   -6.3960   -0.5274    1.9725 C   0  0  0  0  0  4           0  0  0
   -4.6034    0.6412    3.7417 C   0  0  0  0  0  4           0  0  0
   -5.0242   -0.5616    1.7036 C   0  0  0  0  0  4           0  0  0
    1.9738   -0.0000    1.3009 C   0  0  0  0  0  4           0  0  0
   -8.8210    1.2150    2.6668 C   0  0  0  0  0  4           0  0  0
    0.1372    0.0111   -2.4692 C   0  0  0  0  0  4           0  0  0
    3.4930   -0.0000    1.1538 C   0  0  2  0  0  4           0  0  0
    3.9841   -1.2398    0.3871 C   0  0  0  0  0  4           0  0  0
    4.1634    0.0886    2.5317 C   0  0  0  0  0  4           0  0  0
    5.5076   -1.2774    0.2884 C   0  0  0  0  0  4           0  0  0
    5.6860    0.0501    2.4258 C   0  0  0  0  0  4           0  0  0
    6.1653   -1.1796    1.6611 C   0  0  0  0  0  4           0  0  0
  1  6  1  0     0  0
  2  9  1  0     0  0
  2 19  1  0     0  0
  3 10  1  0     0  0
  3 20  1  0     0  0
  4  9  2  0     0  0
  4 11  1  0     0  0
  5 11  2  0     0  0
  5 12  1  0     0  0
  6 21  2  0     0  0
  7 11  1  0     0  0
  7 13  1  0     0  0
  8 12  1  0     0  0
  9 14  1  0     0  0
 10 15  2  0     0  0
 10 16  1  0     0  0
 12 14  2  0     0  0
 13 17  2  0     0  0
 13 18  1  0     0  0
 14 21  1  0     0  0
 15 17  1  0     0  0
 16 18  2  0     0  0
 19 22  1  0     0  0
 22 23  1  0     0  0
 22 24  1  0     0  0
 23 25  1  0     0  0
 24 26  1  0     0  0
 25 27  1  0     0  0
 26 27  1  0     0  0
M  END
> <Compound >
12

> <standard_type>
pIC50

> <# Confs.>
25

> <canonical_smiles>
NC1=C(/C([H])=N/O)C(OCC2CCCCC2)=NC(NC3=CC=C(OC)C=C3)=N1

> <standard_relation>
=

> <predicted_activity_value>
5.6118987984294835

> <actual_activity_value>
5.080921907623926

> <Publication ID>
nan

> <standard_units>
nM

> hash
18056919525170555622

$$$$
15
XXILIB    08252103513D 0   0.00000     0.00000

 12 12  0     1  0            999 V2000
   -0.4979   -0.5409    3.3556 O   0  0  0  0  0  2           0  0  0
    1.3872   -0.0000   -0.0000 O   0  0  0  0  0  2           0  0  0
   -0.6618    0.0030   -1.1792 N   0  0  0  0  0  3           0  0  0
   -2.7127    0.0328    0.0250 N   0  0  0  0  0  3           0  0  0
    0.0678    0.0251    2.4124 N   0  0  0  0  0  3           0  0  0
   -2.7104    0.0272   -2.3245 N   0  0  0  0  0  3           0  0  0
   -2.7848    0.0699    2.3775 N   0  0  0  0  0  3           0  0  0
    0.0000    0.0000    0.0000 C   0  0  0  0  0  4           0  0  0
   -2.0090    0.0198   -1.1297 C   0  0  0  0  0  4           0  0  0
   -2.0374    0.0110    1.2015 C   0  0  0  0  0  4           0  0  0
   -0.6422    0.0000    1.2340 C   0  0  0  0  0  4           0  0  0
    1.9685    0.0000   -1.3012 C   0  0  0  0  0  4           0  0  0
  1  5  2  0     0  0
  2  8  1  0     0  0
  2 12  1  0     0  0
  3  8  2  0     0  0
  3  9  1  0     0  0
  4  9  2  0     0  0
  4 10  1  0     0  0
  5 11  1  0     0  0
  6  9  1  0     0  0
  7 10  1  0     0  0
  8 11  1  0     0  0
 10 11  2  0     0  0
M  END
> <Compound >
16

> <standard_type>
pIC50

> <# Confs.>
4

> <canonical_smiles>
NC1=NC(N)=C(N=O)C(OC)=N1

> <standard_relation>
=

> <predicted_activity_value>
3.7575430536731536

> <actual_activity_value>
4.102372908709558

> <Publication ID>
nan

> <standard_units>
nM

> hash
2351747802885158102

$$$$
15
XXILIB    08252103513D 0   0.00000     0.00000

 12 12  0     1  0            999 V2000
    1.1552    0.6095    2.3352 O   0  0  0  0  0  2           0  0  0
    1.3872   -0.0000   -0.0000 O   0  0  0  0  0  2           0  0  0
   -0.6618    0.0030   -1.1792 N   0  0  0  0  0  3           0  0  0
   -2.7127    0.0328    0.0250 N   0  0  0  0  0  3           0  0  0
    0.0678    0.0251    2.4124 N   0  0  0  0  0  3           0  0  0
   -2.7104    0.0272   -2.3245 N   0  0  0  0  0  3           0  0  0
   -2.7848    0.0699    2.3775 N   0  0  0  0  0  3           0  0  0
    0.0000    0.0000    0.0000 C   0  0  0  0  0  4           0  0  0
   -2.0090    0.0198   -1.1297 C   0  0  0  0  0  4           0  0  0
   -2.0374    0.0110    1.2015 C   0  0  0  0  0  4           0  0  0
   -0.6422    0.0000    1.2340 C   0  0  0  0  0  4           0  0  0
    1.9685    0.0000   -1.3012 C   0  0  0  0  0  4           0  0  0
  1  5  2  0     0  0
  2  8  1  0     0  0
  2 12  1  0     0  0
  3  8  2  0     0  0
  3  9  1  0     0  0
  4  9  2  0     0  0
  4 10  1  0     0  0
  5 11  1  0     0  0
  6  9  1  0     0  0
  7 10  1  0     0  0
  8 11  1  0     0  0
 10 11  2  0     0  0
M  END
> <Compound >
16

> <standard_type>
pIC50

> <# Confs.>
4

> <canonical_smiles>
NC1=NC(N)=C(N=O)C(OC)=N1

> <standard_relation>
=

> <predicted_activity_value>
3.7575430536731536

> <actual_activity_value>
4.102372908709558

> <Publication ID>
nan

> <standard_units>
nM

> hash
2351747802885158102

$$$$
15
XXILIB    08252103513D 0   0.00000     0.00000

 12 12  0     1  0            999 V2000
   -0.5193    0.5877    3.3445 O   0  0  0  0  0  2           0  0  0
    1.3872    0.0000   -0.0000 O   0  0  0  0  0  2           0  0  0
   -0.6618    0.0030   -1.1792 N   0  0  0  0  0  3           0  0  0
   -2.7127    0.0328    0.0250 N   0  0  0  0  0  3           0  0  0
    0.0678    0.0251    2.4124 N   0  0  0  0  0  3           0  0  0
   -2.7104    0.0272   -2.3245 N   0  0  0  0  0  3           0  0  0
   -2.7848    0.0699    2.3775 N   0  0  0  0  0  3           0  0  0
    0.0000    0.0000    0.0000 C   0  0  0  0  0  4           0  0  0
   -2.0090    0.0198   -1.1297 C   0  0  0  0  0  4           0  0  0
   -2.0374    0.0110    1.2015 C   0  0  0  0  0  4           0  0  0
   -0.6422    0.0000    1.2340 C   0  0  0  0  0  4           0  0  0
    1.9685    1.3012    0.0000 C   0  0  0  0  0  4           0  0  0
  1  5  2  0     0  0
  2  8  1  0     0  0
  2 12  1  0     0  0
  3  8  2  0     0  0
  3  9  1  0     0  0
  4  9  2  0     0  0
  4 10  1  0     0  0
  5 11  1  0     0  0
  6  9  1  0     0  0
  7 10  1  0     0  0
  8 11  1  0     0  0
 10 11  2  0     0  0
M  END
> <Compound >
16

> <standard_type>
pIC50

> <# Confs.>
4

> <canonical_smiles>
NC1=NC(N)=C(N=O)C(OC)=N1

> <standard_relation>
=

> <predicted_activity_value>
3.7575430536731536

> <actual_activity_value>
4.102372908709558

> <Publication ID>
nan

> <standard_units>
nM

> hash
2351747802885158102

$$$$
15
XXILIB    08252103513D 0   0.00000     0.00000

 12 12  0     1  0            999 V2000
    1.1766   -0.5191    2.3463 O   0  0  0  0  0  2           0  0  0
    1.3872    0.0000   -0.0000 O   0  0  0  0  0  2           0  0  0
   -0.6618    0.0030   -1.1792 N   0  0  0  0  0  3           0  0  0
   -2.7127    0.0328    0.0250 N   0  0  0  0  0  3           0  0  0
    0.0678    0.0251    2.4124 N   0  0  0  0  0  3           0  0  0
   -2.7104    0.0272   -2.3245 N   0  0  0  0  0  3           0  0  0
   -2.7848    0.0699    2.3775 N   0  0  0  0  0  3           0  0  0
    0.0000    0.0000    0.0000 C   0  0  0  0  0  4           0  0  0
   -2.0090    0.0198   -1.1297 C   0  0  0  0  0  4           0  0  0
   -2.0374    0.0110    1.2015 C   0  0  0  0  0  4           0  0  0
   -0.6422    0.0000    1.2340 C   0  0  0  0  0  4           0  0  0
    1.9685    1.3012    0.0000 C   0  0  0  0  0  4           0  0  0
  1  5  2  0     0  0
  2  8  1  0     0  0
  2 12  1  0     0  0
  3  8  2  0     0  0
  3  9  1  0     0  0
  4  9  2  0     0  0
  4 10  1  0     0  0
  5 11  1  0     0  0
  6  9  1  0     0  0
  7 10  1  0     0  0
  8 11  1  0     0  0
 10 11  2  0     0  0
M  END
> <Compound >
16

> <standard_type>
pIC50

> <# Confs.>
4

> <canonical_smiles>
NC1=NC(N)=C(N=O)C(OC)=N1

> <standard_relation>
=

> <predicted_activity_value>
3.7575430536731536

> <actual_activity_value>
4.102372908709558

> <Publication ID>
nan

> <standard_units>
nM

> hash
2351747802885158102

$$$$
5
XXILIB    08252103513D 0   0.00000     0.00000

 31 33  0     1  0            999 V2000
   -4.6010   -0.5351   -1.0873 O   0  0  0  0  0  2           0  0  0
   -2.7474   -0.0001    2.2993 O   0  0  0  0  0  2           0  0  0
    5.1203    1.0284    5.0680 O   0  0  0  0  0  2           0  0  0
   -0.6706    0.0000    1.1725 N   0  0  0  0  0  3           0  0  0
   -0.6200   -0.0021   -1.2031 N   0  0  0  0  0  3           0  0  0
   -4.1112    0.0204   -0.0969 N   0  0  0  0  0  3           0  0  0
    1.4054    0.0000   -0.0000 N   0  0  0  0  0  3           0  0  0
   -2.5845    0.0178   -2.4998 N   0  0  0  0  0  3           0  0  0
    6.0788   -0.9731    4.3974 N   0  0  2  0  0  3           0  0  0
   -2.0216    0.0072    1.1181 C   0  0  0  0  0  4           0  0  0
    0.0000    0.0000    0.0000 C   0  0  0  0  0  4           0  0  0
   -1.9763   -0.0118   -1.2451 C   0  0  0  0  0  4           0  0  0
   -2.7356    0.0183   -0.0756 C   0  0  0  0  0  4           0  0  0
    2.3178    0.0000    1.0577 C   0  0  0  0  0  4           0  0  0
    4.2122    0.0614    3.1580 C   0  0  0  0  0  4           0  0  0
    3.5687    0.6114    0.8867 C   0  0  0  0  0  4           0  0  0
    2.0334   -0.5820    2.3009 C   0  0  0  0  0  4           0  0  0
    4.5093    0.6433    1.9220 C   0  0  0  0  0  4           0  0  0
    2.9686   -0.5526    3.3410 C   0  0  0  0  0  4           0  0  0
    5.1692    0.0782    4.2863 C   0  0  0  0  0  4           0  0  0
   -1.9459   -0.0149    3.4806 C   0  0  0  0  0  4           0  0  0
    7.0327   -0.9693    5.4888 C   0  0  0  0  0  4           0  0  0
    6.1507   -2.0970    3.4577 C   0  0  0  0  0  4           0  0  0
   -2.8472   -0.0218    4.7137 C   0  0  2  0  0  4           0  0  0
   -1.9998   -0.0378    5.9934 C   0  0  0  0  0  4           0  0  0
   -3.8230   -1.2106    4.6858 C   0  0  0  0  0  4           0  0  0
   -2.8651   -0.1028    7.2491 C   0  0  0  0  0  4           0  0  0
   -4.6787   -1.2744    5.9491 C   0  0  0  0  0  4           0  0  0
   -3.8214   -1.2896    7.2100 C   0  0  0  0  0  4           0  0  0
    6.4925   -1.6753    6.7210 C   0  0  0  0  0  4           0  0  0
    7.1022   -1.8180    2.3064 C   0  0  0  0  0  4           0  0  0
  1  6  2  0     0  0
  2 10  1  0     0  0
  2 21  1  0     0  0
  3 20  2  0     0  0
  4 10  2  0     0  0
  4 11  1  0     0  0
  5 11  2  0     0  0
  5 12  1  0     0  0
  6 13  1  0     0  0
  7 11  1  0     0  0
  7 14  1  0     0  0
  8 12  1  0     0  0
  9 20  1  0     0  0
  9 22  1  0     0  0
  9 23  1  0     0  0
 10 13  1  0     0  0
 12 13  2  0     0  0
 14 16  2  0     0  0
 14 17  1  0     0  0
 15 18  2  0     0  0
 15 19  1  0     0  0
 15 20  1  0     0  0
 16 18  1  0     0  0
 17 19  2  0     0  0
 21 24  1  0     0  0
 22 30  1  0     0  0
 23 31  1  0     0  0
 24 25  1  0     0  0
 24 26  1  0     0  0
 25 27  1  0     0  0
 26 28  1  0     0  0
 27 29  1  0     0  0
 28 29  1  0     0  0
M  END
> <Compound >
6

> <standard_type>
pIC50

> <# Confs.>
25

> <canonical_smiles>
NC1=C(N=O)C(OCC2CCCCC2)=NC(NC3=CC=C(C(N(CC)CC)=O)C=C3)=N1

> <standard_relation>
=

> <predicted_activity_value>
6.604673606930649

> <actual_activity_value>
6.698970004336019

> <Publication ID>
nan

> <standard_units>
nM

> hash
11749655514688934920

$$$$
5
XXILIB    08252103513D 0   0.00000     0.00000

 31 33  0     1  0            999 V2000
   -4.6010   -0.5351   -1.0873 O   0  0  0  0  0  2           0  0  0
   -2.7474   -0.0001    2.2993 O   0  0  0  0  0  2           0  0  0
    5.1203    1.0284    5.0680 O   0  0  0  0  0  2           0  0  0
   -0.6706    0.0000    1.1725 N   0  0  0  0  0  3           0  0  0
   -0.6200   -0.0021   -1.2031 N   0  0  0  0  0  3           0  0  0
   -4.1112    0.0204   -0.0969 N   0  0  0  0  0  3           0  0  0
    1.4054    0.0000   -0.0000 N   0  0  0  0  0  3           0  0  0
   -2.5845    0.0178   -2.4998 N   0  0  0  0  0  3           0  0  0
    6.0788   -0.9731    4.3974 N   0  0  2  0  0  3           0  0  0
   -2.0216    0.0072    1.1181 C   0  0  0  0  0  4           0  0  0
    0.0000    0.0000    0.0000 C   0  0  0  0  0  4           0  0  0
   -1.9763   -0.0118   -1.2451 C   0  0  0  0  0  4           0  0  0
   -2.7356    0.0183   -0.0756 C   0  0  0  0  0  4           0  0  0
    2.3178    0.0000    1.0577 C   0  0  0  0  0  4           0  0  0
    4.2122    0.0614    3.1580 C   0  0  0  0  0  4           0  0  0
    3.5687    0.6114    0.8867 C   0  0  0  0  0  4           0  0  0
    2.0334   -0.5820    2.3009 C   0  0  0  0  0  4           0  0  0
    4.5093    0.6433    1.9220 C   0  0  0  0  0  4           0  0  0
    2.9686   -0.5526    3.3410 C   0  0  0  0  0  4           0  0  0
    5.1692    0.0782    4.2863 C   0  0  0  0  0  4           0  0  0
   -1.9459   -0.0149    3.4806 C   0  0  0  0  0  4           0  0  0
    7.0327   -0.9693    5.4888 C   0  0  0  0  0  4           0  0  0
    6.1507   -2.0970    3.4577 C   0  0  0  0  0  4           0  0  0
   -2.8472   -0.0218    4.7137 C   0  0  2  0  0  4           0  0  0
   -3.7367    1.2290    4.7309 C   0  0  0  0  0  4           0  0  0
   -2.0225   -0.1278    6.0079 C   0  0  0  0  0  4           0  0  0
   -4.6131    1.2879    5.9792 C   0  0  0  0  0  4           0  0  0
   -2.9050   -0.0588    7.2524 C   0  0  0  0  0  4           0  0  0
   -3.7813    1.1890    7.2532 C   0  0  0  0  0  4           0  0  0
    6.4925   -1.6753    6.7210 C   0  0  0  0  0  4           0  0  0
    7.1022   -1.8180    2.3064 C   0  0  0  0  0  4           0  0  0
  1  6  2  0     0  0
  2 10  1  0     0  0
  2 21  1  0     0  0
  3 20  2  0     0  0
  4 10  2  0     0  0
  4 11  1  0     0  0
  5 11  2  0     0  0
  5 12  1  0     0  0
  6 13  1  0     0  0
  7 11  1  0     0  0
  7 14  1  0     0  0
  8 12  1  0     0  0
  9 20  1  0     0  0
  9 22  1  0     0  0
  9 23  1  0     0  0
 10 13  1  0     0  0
 12 13  2  0     0  0
 14 16  2  0     0  0
 14 17  1  0     0  0
 15 18  2  0     0  0
 15 19  1  0     0  0
 15 20  1  0     0  0
 16 18  1  0     0  0
 17 19  2  0     0  0
 21 24  1  0     0  0
 22 30  1  0     0  0
 23 31  1  0     0  0
 24 25  1  0     0  0
 24 26  1  0     0  0
 25 27  1  0     0  0
 26 28  1  0     0  0
 27 29  1  0     0  0
 28 29  1  0     0  0
M  END
> <Compound >
6

> <standard_type>
pIC50

> <# Confs.>
25

> <canonical_smiles>
NC1=C(N=O)C(OCC2CCCCC2)=NC(NC3=CC=C(C(N(CC)CC)=O)C=C3)=N1

> <standard_relation>
=

> <predicted_activity_value>
6.604673606930649

> <actual_activity_value>
6.698970004336019

> <Publication ID>
nan

> <standard_units>
nM

> hash
11749655514688934920

$$$$
5
XXILIB    08252103513D 0   0.00000     0.00000

 31 33  0     1  0            999 V2000
   -4.6010   -0.5351   -1.0873 O   0  0  0  0  0  2           0  0  0
   -2.7474   -0.0001    2.2993 O   0  0  0  0  0  2           0  0  0
    5.1203    1.0284    5.0680 O   0  0  0  0  0  2           0  0  0
   -0.6706    0.0000    1.1725 N   0  0  0  0  0  3           0  0  0
   -0.6200   -0.0021   -1.2031 N   0  0  0  0  0  3           0  0  0
   -4.1112    0.0204   -0.0969 N   0  0  0  0  0  3           0  0  0
    1.4054    0.0000   -0.0000 N   0  0  0  0  0  3           0  0  0
   -2.5845    0.0178   -2.4998 N   0  0  0  0  0  3           0  0  0
    6.0788   -0.9731    4.3974 N   0  0  2  0  0  3           0  0  0
   -2.0216    0.0072    1.1181 C   0  0  0  0  0  4           0  0  0
    0.0000    0.0000    0.0000 C   0  0  0  0  0  4           0  0  0
   -1.9763   -0.0118   -1.2451 C   0  0  0  0  0  4           0  0  0
   -2.7356    0.0183   -0.0756 C   0  0  0  0  0  4           0  0  0
    2.3178    0.0000    1.0577 C   0  0  0  0  0  4           0  0  0
    4.2122    0.0614    3.1580 C   0  0  0  0  0  4           0  0  0
    3.5687    0.6114    0.8867 C   0  0  0  0  0  4           0  0  0
    2.0334   -0.5820    2.3009 C   0  0  0  0  0  4           0  0  0
    4.5093    0.6433    1.9220 C   0  0  0  0  0  4           0  0  0
    2.9686   -0.5526    3.3410 C   0  0  0  0  0  4           0  0  0
    5.1692    0.0782    4.2863 C   0  0  0  0  0  4           0  0  0
   -1.9459   -0.0149    3.4806 C   0  0  0  0  0  4           0  0  0
    7.0327   -0.9693    5.4888 C   0  0  0  0  0  4           0  0  0
    6.1507   -2.0970    3.4577 C   0  0  0  0  0  4           0  0  0
   -2.8472   -0.0218    4.7137 C   0  0  2  0  0  4           0  0  0
   -1.9998   -0.0378    5.9934 C   0  0  0  0  0  4           0  0  0
   -3.8230   -1.2106    4.6858 C   0  0  0  0  0  4           0  0  0
   -2.8651   -0.1028    7.2491 C   0  0  0  0  0  4           0  0  0
   -4.6787   -1.2744    5.9491 C   0  0  0  0  0  4           0  0  0
   -3.8214   -1.2896    7.2100 C   0  0  0  0  0  4           0  0  0
    8.3237   -0.2604    5.1156 C   0  0  0  0  0  4           0  0  0
    5.2551   -3.2501    3.8780 C   0  0  0  0  0  4           0  0  0
  1  6  2  0     0  0
  2 10  1  0     0  0
  2 21  1  0     0  0
  3 20  2  0     0  0
  4 10  2  0     0  0
  4 11  1  0     0  0
  5 11  2  0     0  0
  5 12  1  0     0  0
  6 13  1  0     0  0
  7 11  1  0     0  0
  7 14  1  0     0  0
  8 12  1  0     0  0
  9 20  1  0     0  0
  9 22  1  0     0  0
  9 23  1  0     0  0
 10 13  1  0     0  0
 12 13  2  0     0  0
 14 16  2  0     0  0
 14 17  1  0     0  0
 15 18  2  0     0  0
 15 19  1  0     0  0
 15 20  1  0     0  0
 16 18  1  0     0  0
 17 19  2  0     0  0
 21 24  1  0     0  0
 22 30  1  0     0  0
 23 31  1  0     0  0
 24 25  1  0     0  0
 24 26  1  0     0  0
 25 27  1  0     0  0
 26 28  1  0     0  0
 27 29  1  0     0  0
 28 29  1  0     0  0
M  END
> <Compound >
6

> <standard_type>
pIC50

> <# Confs.>
25

> <canonical_smiles>
NC1=C(N=O)C(OCC2CCCCC2)=NC(NC3=CC=C(C(N(CC)CC)=O)C=C3)=N1

> <standard_relation>
=

> <predicted_activity_value>
6.604673606930649

> <actual_activity_value>
6.698970004336019

> <Publication ID>
nan

> <standard_units>
nM

> hash
11749655514688934920

$$$$
5
XXILIB    08252103513D 0   0.00000     0.00000

 31 33  0     1  0            999 V2000
   -4.6010   -0.5351   -1.0873 O   0  0  0  0  0  2           0  0  0
   -2.7474   -0.0001    2.2993 O   0  0  0  0  0  2           0  0  0
    5.1203    1.0284    5.0680 O   0  0  0  0  0  2           0  0  0
   -0.6706    0.0000    1.1725 N   0  0  0  0  0  3           0  0  0
   -0.6200   -0.0021   -1.2031 N   0  0  0  0  0  3           0  0  0
   -4.1112    0.0204   -0.0969 N   0  0  0  0  0  3           0  0  0
    1.4054    0.0000   -0.0000 N   0  0  0  0  0  3           0  0  0
   -2.5845    0.0178   -2.4998 N   0  0  0  0  0  3           0  0  0
    6.0788   -0.9731    4.3974 N   0  0  2  0  0  3           0  0  0
   -2.0216    0.0072    1.1181 C   0  0  0  0  0  4           0  0  0
    0.0000    0.0000    0.0000 C   0  0  0  0  0  4           0  0  0
   -1.9763   -0.0118   -1.2451 C   0  0  0  0  0  4           0  0  0
   -2.7356    0.0183   -0.0756 C   0  0  0  0  0  4           0  0  0
    2.3178    0.0000    1.0577 C   0  0  0  0  0  4           0  0  0
    4.2122    0.0614    3.1580 C   0  0  0  0  0  4           0  0  0
    3.5687    0.6114    0.8867 C   0  0  0  0  0  4           0  0  0
    2.0334   -0.5820    2.3009 C   0  0  0  0  0  4           0  0  0
    4.5093    0.6433    1.9220 C   0  0  0  0  0  4           0  0  0
    2.9686   -0.5526    3.3410 C   0  0  0  0  0  4           0  0  0
    5.1692    0.0782    4.2863 C   0  0  0  0  0  4           0  0  0
   -1.9459   -0.0149    3.4806 C   0  0  0  0  0  4           0  0  0
    7.0327   -0.9693    5.4888 C   0  0  0  0  0  4           0  0  0
    6.1507   -2.0970    3.4577 C   0  0  0  0  0  4           0  0  0
   -2.8472   -0.0218    4.7137 C   0  0  2  0  0  4           0  0  0
   -3.7367    1.2290    4.7309 C   0  0  0  0  0  4           0  0  0
   -2.0225   -0.1278    6.0079 C   0  0  0  0  0  4           0  0  0
   -4.6131    1.2879    5.9792 C   0  0  0  0  0  4           0  0  0
   -2.9050   -0.0588    7.2524 C   0  0  0  0  0  4           0  0  0
   -3.7813    1.1890    7.2532 C   0  0  0  0  0  4           0  0  0
    8.3237   -0.2604    5.1156 C   0  0  0  0  0  4           0  0  0
    5.2551   -3.2501    3.8780 C   0  0  0  0  0  4           0  0  0
  1  6  2  0     0  0
  2 10  1  0     0  0
  2 21  1  0     0  0
  3 20  2  0     0  0
  4 10  2  0     0  0
  4 11  1  0     0  0
  5 11  2  0     0  0
  5 12  1  0     0  0
  6 13  1  0     0  0
  7 11  1  0     0  0
  7 14  1  0     0  0
  8 12  1  0     0  0
  9 20  1  0     0  0
  9 22  1  0     0  0
  9 23  1  0     0  0
 10 13  1  0     0  0
 12 13  2  0     0  0
 14 16  2  0     0  0
 14 17  1  0     0  0
 15 18  2  0     0  0
 15 19  1  0     0  0
 15 20  1  0     0  0
 16 18  1  0     0  0
 17 19  2  0     0  0
 21 24  1  0     0  0
 22 30  1  0     0  0
 23 31  1  0     0  0
 24 25  1  0     0  0
 24 26  1  0     0  0
 25 27  1  0     0  0
 26 28  1  0     0  0
 27 29  1  0     0  0
 28 29  1  0     0  0
M  END
> <Compound >
6

> <standard_type>
pIC50

> <# Confs.>
25

> <canonical_smiles>
NC1=C(N=O)C(OCC2CCCCC2)=NC(NC3=CC=C(C(N(CC)CC)=O)C=C3)=N1

> <standard_relation>
=

> <predicted_activity_value>
6.604673606930649

> <actual_activity_value>
6.698970004336019

> <Publication ID>
nan

> <standard_units>
nM

> hash
11749655514688934920

$$$$
5
XXILIB    08252103513D 0   0.00000     0.00000

 31 33  0     1  0            999 V2000
   -4.6010   -0.5351   -1.0873 O   0  0  0  0  0  2           0  0  0
   -2.7474   -0.0001    2.2993 O   0  0  0  0  0  2           0  0  0
    5.1203    1.0284    5.0680 O   0  0  0  0  0  2           0  0  0
   -0.6706    0.0000    1.1725 N   0  0  0  0  0  3           0  0  0
   -0.6200   -0.0021   -1.2031 N   0  0  0  0  0  3           0  0  0
   -4.1112    0.0204   -0.0969 N   0  0  0  0  0  3           0  0  0
    1.4054    0.0000   -0.0000 N   0  0  0  0  0  3           0  0  0
   -2.5845    0.0178   -2.4998 N   0  0  0  0  0  3           0  0  0
    6.0788   -0.9731    4.3974 N   0  0  2  0  0  3           0  0  0
   -2.0216    0.0072    1.1181 C   0  0  0  0  0  4           0  0  0
    0.0000    0.0000    0.0000 C   0  0  0  0  0  4           0  0  0
   -1.9763   -0.0118   -1.2451 C   0  0  0  0  0  4           0  0  0
   -2.7356    0.0183   -0.0756 C   0  0  0  0  0  4           0  0  0
    2.3178    0.0000    1.0577 C   0  0  0  0  0  4           0  0  0
    4.2122    0.0614    3.1580 C   0  0  0  0  0  4           0  0  0
    3.5687    0.6114    0.8867 C   0  0  0  0  0  4           0  0  0
    2.0334   -0.5820    2.3009 C   0  0  0  0  0  4           0  0  0
    4.5093    0.6433    1.9220 C   0  0  0  0  0  4           0  0  0
    2.9686   -0.5526    3.3410 C   0  0  0  0  0  4           0  0  0
    5.1692    0.0782    4.2863 C   0  0  0  0  0  4           0  0  0
   -1.9459   -0.0149    3.4806 C   0  0  0  0  0  4           0  0  0
    7.0327   -0.9693    5.4888 C   0  0  0  0  0  4           0  0  0
    6.1507   -2.0970    3.4577 C   0  0  0  0  0  4           0  0  0
   -2.8472   -0.0218    4.7137 C   0  0  2  0  0  4           0  0  0
   -3.7490   -1.2639    4.7080 C   0  0  0  0  0  4           0  0  0
   -3.6850    1.2653    4.8005 C   0  0  0  0  0  4           0  0  0
   -4.7064   -1.2785    5.8967 C   0  0  0  0  0  4           0  0  0
   -4.6469    1.2395    5.9864 C   0  0  0  0  0  4           0  0  0
   -5.5344   -0.0001    5.9651 C   0  0  0  0  0  4           0  0  0
    6.4925   -1.6753    6.7210 C   0  0  0  0  0  4           0  0  0
    7.1022   -1.8180    2.3064 C   0  0  0  0  0  4           0  0  0
  1  6  2  0     0  0
  2 10  1  0     0  0
  2 21  1  0     0  0
  3 20  2  0     0  0
  4 10  2  0     0  0
  4 11  1  0     0  0
  5 11  2  0     0  0
  5 12  1  0     0  0
  6 13  1  0     0  0
  7 11  1  0     0  0
  7 14  1  0     0  0
  8 12  1  0     0  0
  9 20  1  0     0  0
  9 22  1  0     0  0
  9 23  1  0     0  0
 10 13  1  0     0  0
 12 13  2  0     0  0
 14 16  2  0     0  0
 14 17  1  0     0  0
 15 18  2  0     0  0
 15 19  1  0     0  0
 15 20  1  0     0  0
 16 18  1  0     0  0
 17 19  2  0     0  0
 21 24  1  0     0  0
 22 30  1  0     0  0
 23 31  1  0     0  0
 24 25  1  0     0  0
 24 26  1  0     0  0
 25 27  1  0     0  0
 26 28  1  0     0  0
 27 29  1  0     0  0
 28 29  1  0     0  0
M  END
> <Compound >
6

> <standard_type>
pIC50

> <# Confs.>
25

> <canonical_smiles>
NC1=C(N=O)C(OCC2CCCCC2)=NC(NC3=CC=C(C(N(CC)CC)=O)C=C3)=N1

> <standard_relation>
=

> <predicted_activity_value>
6.604673606930649

> <actual_activity_value>
6.698970004336019

> <Publication ID>
nan

> <standard_units>
nM

> hash
11749655514688934920

$$$$
5
XXILIB    08252103513D 0   0.00000     0.00000

 31 33  0     1  0            999 V2000
   -4.6010   -0.5351   -1.0873 O   0  0  0  0  0  2           0  0  0
   -2.7474   -0.0001    2.2993 O   0  0  0  0  0  2           0  0  0
    5.1203    1.0284    5.0680 O   0  0  0  0  0  2           0  0  0
   -0.6706    0.0000    1.1725 N   0  0  0  0  0  3           0  0  0
   -0.6200   -0.0021   -1.2031 N   0  0  0  0  0  3           0  0  0
   -4.1112    0.0204   -0.0969 N   0  0  0  0  0  3           0  0  0
    1.4054    0.0000   -0.0000 N   0  0  0  0  0  3           0  0  0
   -2.5845    0.0178   -2.4998 N   0  0  0  0  0  3           0  0  0
    6.0788   -0.9731    4.3974 N   0  0  2  0  0  3           0  0  0
   -2.0216    0.0072    1.1181 C   0  0  0  0  0  4           0  0  0
    0.0000    0.0000    0.0000 C   0  0  0  0  0  4           0  0  0
   -1.9763   -0.0118   -1.2451 C   0  0  0  0  0  4           0  0  0
   -2.7356    0.0183   -0.0756 C   0  0  0  0  0  4           0  0  0
    2.3178    0.0000    1.0577 C   0  0  0  0  0  4           0  0  0
    4.2122    0.0614    3.1580 C   0  0  0  0  0  4           0  0  0
    3.5687    0.6114    0.8867 C   0  0  0  0  0  4           0  0  0
    2.0334   -0.5820    2.3009 C   0  0  0  0  0  4           0  0  0
    4.5093    0.6433    1.9220 C   0  0  0  0  0  4           0  0  0
    2.9686   -0.5526    3.3410 C   0  0  0  0  0  4           0  0  0
    5.1692    0.0782    4.2863 C   0  0  0  0  0  4           0  0  0
   -1.9459   -0.0149    3.4806 C   0  0  0  0  0  4           0  0  0
    7.0327   -0.9693    5.4888 C   0  0  0  0  0  4           0  0  0
    6.1507   -2.0970    3.4577 C   0  0  0  0  0  4           0  0  0
   -2.8472   -0.0218    4.7137 C   0  0  2  0  0  4           0  0  0
   -3.7490   -1.2639    4.7080 C   0  0  0  0  0  4           0  0  0
   -3.6850    1.2653    4.8005 C   0  0  0  0  0  4           0  0  0
   -4.7064   -1.2785    5.8967 C   0  0  0  0  0  4           0  0  0
   -4.6469    1.2395    5.9864 C   0  0  0  0  0  4           0  0  0
   -5.5344   -0.0001    5.9651 C   0  0  0  0  0  4           0  0  0
    8.3237   -0.2604    5.1156 C   0  0  0  0  0  4           0  0  0
    5.2551   -3.2501    3.8780 C   0  0  0  0  0  4           0  0  0
  1  6  2  0     0  0
  2 10  1  0     0  0
  2 21  1  0     0  0
  3 20  2  0     0  0
  4 10  2  0     0  0
  4 11  1  0     0  0
  5 11  2  0     0  0
  5 12  1  0     0  0
  6 13  1  0     0  0
  7 11  1  0     0  0
  7 14  1  0     0  0
  8 12  1  0     0  0
  9 20  1  0     0  0
  9 22  1  0     0  0
  9 23  1  0     0  0
 10 13  1  0     0  0
 12 13  2  0     0  0
 14 16  2  0     0  0
 14 17  1  0     0  0
 15 18  2  0     0  0
 15 19  1  0     0  0
 15 20  1  0     0  0
 16 18  1  0     0  0
 17 19  2  0     0  0
 21 24  1  0     0  0
 22 30  1  0     0  0
 23 31  1  0     0  0
 24 25  1  0     0  0
 24 26  1  0     0  0
 25 27  1  0     0  0
 26 28  1  0     0  0
 27 29  1  0     0  0
 28 29  1  0     0  0
M  END
> <Compound >
6

> <standard_type>
pIC50

> <# Confs.>
25

> <canonical_smiles>
NC1=C(N=O)C(OCC2CCCCC2)=NC(NC3=CC=C(C(N(CC)CC)=O)C=C3)=N1

> <standard_relation>
=

> <predicted_activity_value>
6.604673606930649

> <actual_activity_value>
6.698970004336019

> <Publication ID>
nan

> <standard_units>
nM

> hash
11749655514688934920

$$$$
5
XXILIB    08252103513D 0   0.00000     0.00000

 31 33  0     1  0            999 V2000
   -4.6010   -0.5351   -1.0873 O   0  0  0  0  0  2           0  0  0
   -2.7474   -0.0001    2.2993 O   0  0  0  0  0  2           0  0  0
    5.1203   -1.0284   -5.0680 O   0  0  0  0  0  2           0  0  0
   -0.6706    0.0000    1.1725 N   0  0  0  0  0  3           0  0  0
   -0.6200   -0.0021   -1.2031 N   0  0  0  0  0  3           0  0  0
   -4.1112    0.0204   -0.0969 N   0  0  0  0  0  3           0  0  0
    1.4054   -0.0000    0.0000 N   0  0  0  0  0  3           0  0  0
   -2.5845    0.0178   -2.4998 N   0  0  0  0  0  3           0  0  0
    6.0788    0.9731   -4.3974 N   0  0  2  0  0  3           0  0  0
   -2.0216    0.0072    1.1181 C   0  0  0  0  0  4           0  0  0
    0.0000    0.0000    0.0000 C   0  0  0  0  0  4           0  0  0
   -1.9763   -0.0118   -1.2451 C   0  0  0  0  0  4           0  0  0
   -2.7356    0.0183   -0.0756 C   0  0  0  0  0  4           0  0  0
    2.3178   -0.0000   -1.0577 C   0  0  0  0  0  4           0  0  0
    4.2122   -0.0614   -3.1580 C   0  0  0  0  0  4           0  0  0
    3.5687   -0.6114   -0.8867 C   0  0  0  0  0  4           0  0  0
    2.0334    0.5820   -2.3009 C   0  0  0  0  0  4           0  0  0
    4.5093   -0.6433   -1.9220 C   0  0  0  0  0  4           0  0  0
    2.9686    0.5526   -3.3410 C   0  0  0  0  0  4           0  0  0
    5.1692   -0.0782   -4.2863 C   0  0  0  0  0  4           0  0  0
   -1.9459   -0.0149    3.4806 C   0  0  0  0  0  4           0  0  0
    7.0327    0.9693   -5.4888 C   0  0  0  0  0  4           0  0  0
    6.1507    2.0970   -3.4577 C   0  0  0  0  0  4           0  0  0
   -2.8472   -0.0218    4.7137 C   0  0  2  0  0  4           0  0  0
   -1.9998   -0.0378    5.9934 C   0  0  0  0  0  4           0  0  0
   -3.8230   -1.2106    4.6858 C   0  0  0  0  0  4           0  0  0
   -2.8651   -0.1028    7.2491 C   0  0  0  0  0  4           0  0  0
   -4.6787   -1.2744    5.9491 C   0  0  0  0  0  4           0  0  0
   -3.8214   -1.2896    7.2100 C   0  0  0  0  0  4           0  0  0
    6.4925    1.6753   -6.7210 C   0  0  0  0  0  4           0  0  0
    7.1022    1.8180   -2.3064 C   0  0  0  0  0  4           0  0  0
  1  6  2  0     0  0
  2 10  1  0     0  0
  2 21  1  0     0  0
  3 20  2  0     0  0
  4 10  2  0     0  0
  4 11  1  0     0  0
  5 11  2  0     0  0
  5 12  1  0     0  0
  6 13  1  0     0  0
  7 11  1  0     0  0
  7 14  1  0     0  0
  8 12  1  0     0  0
  9 20  1  0     0  0
  9 22  1  0     0  0
  9 23  1  0     0  0
 10 13  1  0     0  0
 12 13  2  0     0  0
 14 16  2  0     0  0
 14 17  1  0     0  0
 15 18  2  0     0  0
 15 19  1  0     0  0
 15 20  1  0     0  0
 16 18  1  0     0  0
 17 19  2  0     0  0
 21 24  1  0     0  0
 22 30  1  0     0  0
 23 31  1  0     0  0
 24 25  1  0     0  0
 24 26  1  0     0  0
 25 27  1  0     0  0
 26 28  1  0     0  0
 27 29  1  0     0  0
 28 29  1  0     0  0
M  END
> <Compound >
6

> <standard_type>
pIC50

> <# Confs.>
25

> <canonical_smiles>
NC1=C(N=O)C(OCC2CCCCC2)=NC(NC3=CC=C(C(N(CC)CC)=O)C=C3)=N1

> <standard_relation>
=

> <predicted_activity_value>
6.604673606930649

> <actual_activity_value>
6.698970004336019

> <Publication ID>
nan

> <standard_units>
nM

> hash
11749655514688934920

$$$$
5
XXILIB    08252103513D 0   0.00000     0.00000

 31 33  0     1  0            999 V2000
   -4.6010   -0.5351   -1.0873 O   0  0  0  0  0  2           0  0  0
   -2.7474   -0.0001    2.2993 O   0  0  0  0  0  2           0  0  0
    5.1203   -1.0284   -5.0680 O   0  0  0  0  0  2           0  0  0
   -0.6706    0.0000    1.1725 N   0  0  0  0  0  3           0  0  0
   -0.6200   -0.0021   -1.2031 N   0  0  0  0  0  3           0  0  0
   -4.1112    0.0204   -0.0969 N   0  0  0  0  0  3           0  0  0
    1.4054   -0.0000    0.0000 N   0  0  0  0  0  3           0  0  0
   -2.5845    0.0178   -2.4998 N   0  0  0  0  0  3           0  0  0
    6.0788    0.9731   -4.3974 N   0  0  2  0  0  3           0  0  0
   -2.0216    0.0072    1.1181 C   0  0  0  0  0  4           0  0  0
    0.0000    0.0000    0.0000 C   0  0  0  0  0  4           0  0  0
   -1.9763   -0.0118   -1.2451 C   0  0  0  0  0  4           0  0  0
   -2.7356    0.0183   -0.0756 C   0  0  0  0  0  4           0  0  0
    2.3178   -0.0000   -1.0577 C   0  0  0  0  0  4           0  0  0
    4.2122   -0.0614   -3.1580 C   0  0  0  0  0  4           0  0  0
    3.5687   -0.6114   -0.8867 C   0  0  0  0  0  4           0  0  0
    2.0334    0.5820   -2.3009 C   0  0  0  0  0  4           0  0  0
    4.5093   -0.6433   -1.9220 C   0  0  0  0  0  4           0  0  0
    2.9686    0.5526   -3.3410 C   0  0  0  0  0  4           0  0  0
    5.1692   -0.0782   -4.2863 C   0  0  0  0  0  4           0  0  0
   -1.9459   -0.0149    3.4806 C   0  0  0  0  0  4           0  0  0
    7.0327    0.9693   -5.4888 C   0  0  0  0  0  4           0  0  0
    6.1507    2.0970   -3.4577 C   0  0  0  0  0  4           0  0  0
   -2.8472   -0.0218    4.7137 C   0  0  2  0  0  4           0  0  0
   -3.7367    1.2290    4.7309 C   0  0  0  0  0  4           0  0  0
   -2.0225   -0.1278    6.0079 C   0  0  0  0  0  4           0  0  0
   -4.6131    1.2879    5.9792 C   0  0  0  0  0  4           0  0  0
   -2.9050   -0.0588    7.2524 C   0  0  0  0  0  4           0  0  0
   -3.7813    1.1890    7.2532 C   0  0  0  0  0  4           0  0  0
    6.4925    1.6753   -6.7210 C   0  0  0  0  0  4           0  0  0
    7.1022    1.8180   -2.3064 C   0  0  0  0  0  4           0  0  0
  1  6  2  0     0  0
  2 10  1  0     0  0
  2 21  1  0     0  0
  3 20  2  0     0  0
  4 10  2  0     0  0
  4 11  1  0     0  0
  5 11  2  0     0  0
  5 12  1  0     0  0
  6 13  1  0     0  0
  7 11  1  0     0  0
  7 14  1  0     0  0
  8 12  1  0     0  0
  9 20  1  0     0  0
  9 22  1  0     0  0
  9 23  1  0     0  0
 10 13  1  0     0  0
 12 13  2  0     0  0
 14 16  2  0     0  0
 14 17  1  0     0  0
 15 18  2  0     0  0
 15 19  1  0     0  0
 15 20  1  0     0  0
 16 18  1  0     0  0
 17 19  2  0     0  0
 21 24  1  0     0  0
 22 30  1  0     0  0
 23 31  1  0     0  0
 24 25  1  0     0  0
 24 26  1  0     0  0
 25 27  1  0     0  0
 26 28  1  0     0  0
 27 29  1  0     0  0
 28 29  1  0     0  0
M  END
> <Compound >
6

> <standard_type>
pIC50

> <# Confs.>
25

> <canonical_smiles>
NC1=C(N=O)C(OCC2CCCCC2)=NC(NC3=CC=C(C(N(CC)CC)=O)C=C3)=N1

> <standard_relation>
=

> <predicted_activity_value>
6.604673606930649

> <actual_activity_value>
6.698970004336019

> <Publication ID>
nan

> <standard_units>
nM

> hash
11749655514688934920

$$$$
5
XXILIB    08252103513D 0   0.00000     0.00000

 31 33  0     1  0            999 V2000
   -4.6010   -0.5351   -1.0873 O   0  0  0  0  0  2           0  0  0
   -2.7474   -0.0001    2.2993 O   0  0  0  0  0  2           0  0  0
    5.1203   -1.0284   -5.0680 O   0  0  0  0  0  2           0  0  0
   -0.6706    0.0000    1.1725 N   0  0  0  0  0  3           0  0  0
   -0.6200   -0.0021   -1.2031 N   0  0  0  0  0  3           0  0  0
   -4.1112    0.0204   -0.0969 N   0  0  0  0  0  3           0  0  0
    1.4054   -0.0000    0.0000 N   0  0  0  0  0  3           0  0  0
   -2.5845    0.0178   -2.4998 N   0  0  0  0  0  3           0  0  0
    6.0788    0.9731   -4.3974 N   0  0  2  0  0  3           0  0  0
   -2.0216    0.0072    1.1181 C   0  0  0  0  0  4           0  0  0
    0.0000    0.0000    0.0000 C   0  0  0  0  0  4           0  0  0
   -1.9763   -0.0118   -1.2451 C   0  0  0  0  0  4           0  0  0
   -2.7356    0.0183   -0.0756 C   0  0  0  0  0  4           0  0  0
    2.3178   -0.0000   -1.0577 C   0  0  0  0  0  4           0  0  0
    4.2122   -0.0614   -3.1580 C   0  0  0  0  0  4           0  0  0
    3.5687   -0.6114   -0.8867 C   0  0  0  0  0  4           0  0  0
    2.0334    0.5820   -2.3009 C   0  0  0  0  0  4           0  0  0
    4.5093   -0.6433   -1.9220 C   0  0  0  0  0  4           0  0  0
    2.9686    0.5526   -3.3410 C   0  0  0  0  0  4           0  0  0
    5.1692   -0.0782   -4.2863 C   0  0  0  0  0  4           0  0  0
   -1.9459   -0.0149    3.4806 C   0  0  0  0  0  4           0  0  0
    7.0327    0.9693   -5.4888 C   0  0  0  0  0  4           0  0  0
    6.1507    2.0970   -3.4577 C   0  0  0  0  0  4           0  0  0
   -2.8472   -0.0218    4.7137 C   0  0  2  0  0  4           0  0  0
   -1.9998   -0.0378    5.9934 C   0  0  0  0  0  4           0  0  0
   -3.8230   -1.2106    4.6858 C   0  0  0  0  0  4           0  0  0
   -2.8651   -0.1028    7.2491 C   0  0  0  0  0  4           0  0  0
   -4.6787   -1.2744    5.9491 C   0  0  0  0  0  4           0  0  0
   -3.8214   -1.2896    7.2100 C   0  0  0  0  0  4           0  0  0
    8.3237    0.2604   -5.1156 C   0  0  0  0  0  4           0  0  0
    5.2551    3.2501   -3.8780 C   0  0  0  0  0  4           0  0  0
  1  6  2  0     0  0
  2 10  1  0     0  0
  2 21  1  0     0  0
  3 20  2  0     0  0
  4 10  2  0     0  0
  4 11  1  0     0  0
  5 11  2  0     0  0
  5 12  1  0     0  0
  6 13  1  0     0  0
  7 11  1  0     0  0
  7 14  1  0     0  0
  8 12  1  0     0  0
  9 20  1  0     0  0
  9 22  1  0     0  0
  9 23  1  0     0  0
 10 13  1  0     0  0
 12 13  2  0     0  0
 14 16  2  0     0  0
 14 17  1  0     0  0
 15 18  2  0     0  0
 15 19  1  0     0  0
 15 20  1  0     0  0
 16 18  1  0     0  0
 17 19  2  0     0  0
 21 24  1  0     0  0
 22 30  1  0     0  0
 23 31  1  0     0  0
 24 25  1  0     0  0
 24 26  1  0     0  0
 25 27  1  0     0  0
 26 28  1  0     0  0
 27 29  1  0     0  0
 28 29  1  0     0  0
M  END
> <Compound >
6

> <standard_type>
pIC50

> <# Confs.>
25

> <canonical_smiles>
NC1=C(N=O)C(OCC2CCCCC2)=NC(NC3=CC=C(C(N(CC)CC)=O)C=C3)=N1

> <standard_relation>
=

> <predicted_activity_value>
6.604673606930649

> <actual_activity_value>
6.698970004336019

> <Publication ID>
nan

> <standard_units>
nM

> hash
11749655514688934920

$$$$
5
XXILIB    08252103513D 0   0.00000     0.00000

 31 33  0     1  0            999 V2000
   -4.5994    0.5941   -1.0776 O   0  0  0  0  0  2           0  0  0
   -2.7474   -0.0001    2.2993 O   0  0  0  0  0  2           0  0  0
    5.1203    1.0284    5.0680 O   0  0  0  0  0  2           0  0  0
   -0.6706    0.0000    1.1725 N   0  0  0  0  0  3           0  0  0
   -0.6200   -0.0021   -1.2031 N   0  0  0  0  0  3           0  0  0
   -4.1112    0.0204   -0.0969 N   0  0  0  0  0  3           0  0  0
    1.4054    0.0000   -0.0000 N   0  0  0  0  0  3           0  0  0
   -2.5845    0.0178   -2.4998 N   0  0  0  0  0  3           0  0  0
    6.0788   -0.9731    4.3974 N   0  0  2  0  0  3           0  0  0
   -2.0216    0.0072    1.1181 C   0  0  0  0  0  4           0  0  0
    0.0000    0.0000    0.0000 C   0  0  0  0  0  4           0  0  0
   -1.9763   -0.0118   -1.2451 C   0  0  0  0  0  4           0  0  0
   -2.7356    0.0183   -0.0756 C   0  0  0  0  0  4           0  0  0
    2.3178    0.0000    1.0577 C   0  0  0  0  0  4           0  0  0
    4.2122    0.0614    3.1580 C   0  0  0  0  0  4           0  0  0
    3.5687    0.6114    0.8867 C   0  0  0  0  0  4           0  0  0
    2.0334   -0.5820    2.3009 C   0  0  0  0  0  4           0  0  0
    4.5093    0.6433    1.9220 C   0  0  0  0  0  4           0  0  0
    2.9686   -0.5526    3.3410 C   0  0  0  0  0  4           0  0  0
    5.1692    0.0782    4.2863 C   0  0  0  0  0  4           0  0  0
   -1.9459   -0.0149    3.4806 C   0  0  0  0  0  4           0  0  0
    7.0327   -0.9693    5.4888 C   0  0  0  0  0  4           0  0  0
    6.1507   -2.0970    3.4577 C   0  0  0  0  0  4           0  0  0
   -2.8472   -0.0218    4.7137 C   0  0  2  0  0  4           0  0  0
   -3.7752   -1.2494    4.7586 C   0  0  0  0  0  4           0  0  0
   -2.0256    0.0776    6.0077 C   0  0  0  0  0  4           0  0  0
   -3.0350   -2.5432    5.0946 C   0  0  0  0  0  4           0  0  0
   -1.2827   -1.2151    6.3408 C   0  0  0  0  0  4           0  0  0
   -2.2290   -2.4111    6.3831 C   0  0  0  0  0  4           0  0  0
    6.4925   -1.6753    6.7210 C   0  0  0  0  0  4           0  0  0
    7.1022   -1.8180    2.3064 C   0  0  0  0  0  4           0  0  0
  1  6  2  0     0  0
  2 10  1  0     0  0
  2 21  1  0     0  0
  3 20  2  0     0  0
  4 10  2  0     0  0
  4 11  1  0     0  0
  5 11  2  0     0  0
  5 12  1  0     0  0
  6 13  1  0     0  0
  7 11  1  0     0  0
  7 14  1  0     0  0
  8 12  1  0     0  0
  9 20  1  0     0  0
  9 22  1  0     0  0
  9 23  1  0     0  0
 10 13  1  0     0  0
 12 13  2  0     0  0
 14 16  2  0     0  0
 14 17  1  0     0  0
 15 18  2  0     0  0
 15 19  1  0     0  0
 15 20  1  0     0  0
 16 18  1  0     0  0
 17 19  2  0     0  0
 21 24  1  0     0  0
 22 30  1  0     0  0
 23 31  1  0     0  0
 24 25  1  0     0  0
 24 26  1  0     0  0
 25 27  1  0     0  0
 26 28  1  0     0  0
 27 29  1  0     0  0
 28 29  1  0     0  0
M  END
> <Compound >
6

> <standard_type>
pIC50

> <# Confs.>
25

> <canonical_smiles>
NC1=C(N=O)C(OCC2CCCCC2)=NC(NC3=CC=C(C(N(CC)CC)=O)C=C3)=N1

> <standard_relation>
=

> <predicted_activity_value>
6.604673606930649

> <actual_activity_value>
6.698970004336019

> <Publication ID>
nan

> <standard_units>
nM

> hash
11749655514688934920

$$$$
5
XXILIB    08252103513D 0   0.00000     0.00000

 31 33  0     1  0            999 V2000
   -4.6010   -0.5351   -1.0873 O   0  0  0  0  0  2           0  0  0
   -2.7474   -0.0001    2.2993 O   0  0  0  0  0  2           0  0  0
    5.1203   -1.0284   -5.0680 O   0  0  0  0  0  2           0  0  0
   -0.6706    0.0000    1.1725 N   0  0  0  0  0  3           0  0  0
   -0.6200   -0.0021   -1.2031 N   0  0  0  0  0  3           0  0  0
   -4.1112    0.0204   -0.0969 N   0  0  0  0  0  3           0  0  0
    1.4054   -0.0000    0.0000 N   0  0  0  0  0  3           0  0  0
   -2.5845    0.0178   -2.4998 N   0  0  0  0  0  3           0  0  0
    6.0788    0.9731   -4.3974 N   0  0  2  0  0  3           0  0  0
   -2.0216    0.0072    1.1181 C   0  0  0  0  0  4           0  0  0
    0.0000    0.0000    0.0000 C   0  0  0  0  0  4           0  0  0
   -1.9763   -0.0118   -1.2451 C   0  0  0  0  0  4           0  0  0
   -2.7356    0.0183   -0.0756 C   0  0  0  0  0  4           0  0  0
    2.3178   -0.0000   -1.0577 C   0  0  0  0  0  4           0  0  0
    4.2122   -0.0614   -3.1580 C   0  0  0  0  0  4           0  0  0
    3.5687   -0.6114   -0.8867 C   0  0  0  0  0  4           0  0  0
    2.0334    0.5820   -2.3009 C   0  0  0  0  0  4           0  0  0
    4.5093   -0.6433   -1.9220 C   0  0  0  0  0  4           0  0  0
    2.9686    0.5526   -3.3410 C   0  0  0  0  0  4           0  0  0
    5.1692   -0.0782   -4.2863 C   0  0  0  0  0  4           0  0  0
   -1.9459   -0.0149    3.4806 C   0  0  0  0  0  4           0  0  0
    7.0327    0.9693   -5.4888 C   0  0  0  0  0  4           0  0  0
    6.1507    2.0970   -3.4577 C   0  0  0  0  0  4           0  0  0
   -2.8472   -0.0218    4.7137 C   0  0  2  0  0  4           0  0  0
   -3.7490   -1.2639    4.7080 C   0  0  0  0  0  4           0  0  0
   -3.6850    1.2653    4.8005 C   0  0  0  0  0  4           0  0  0
   -4.7064   -1.2785    5.8967 C   0  0  0  0  0  4           0  0  0
   -4.6469    1.2395    5.9864 C   0  0  0  0  0  4           0  0  0
   -5.5344   -0.0001    5.9651 C   0  0  0  0  0  4           0  0  0
    6.4925    1.6753   -6.7210 C   0  0  0  0  0  4           0  0  0
    7.1022    1.8180   -2.3064 C   0  0  0  0  0  4           0  0  0
  1  6  2  0     0  0
  2 10  1  0     0  0
  2 21  1  0     0  0
  3 20  2  0     0  0
  4 10  2  0     0  0
  4 11  1  0     0  0
  5 11  2  0     0  0
  5 12  1  0     0  0
  6 13  1  0     0  0
  7 11  1  0     0  0
  7 14  1  0     0  0
  8 12  1  0     0  0
  9 20  1  0     0  0
  9 22  1  0     0  0
  9 23  1  0     0  0
 10 13  1  0     0  0
 12 13  2  0     0  0
 14 16  2  0     0  0
 14 17  1  0     0  0
 15 18  2  0     0  0
 15 19  1  0     0  0
 15 20  1  0     0  0
 16 18  1  0     0  0
 17 19  2  0     0  0
 21 24  1  0     0  0
 22 30  1  0     0  0
 23 31  1  0     0  0
 24 25  1  0     0  0
 24 26  1  0     0  0
 25 27  1  0     0  0
 26 28  1  0     0  0
 27 29  1  0     0  0
 28 29  1  0     0  0
M  END
> <Compound >
6

> <standard_type>
pIC50

> <# Confs.>
25

> <canonical_smiles>
NC1=C(N=O)C(OCC2CCCCC2)=NC(NC3=CC=C(C(N(CC)CC)=O)C=C3)=N1

> <standard_relation>
=

> <predicted_activity_value>
6.604673606930649

> <actual_activity_value>
6.698970004336019

> <Publication ID>
nan

> <standard_units>
nM

> hash
11749655514688934920

$$$$
5
XXILIB    08252103513D 0   0.00000     0.00000

 31 33  0     1  0            999 V2000
   -4.6010   -0.5351   -1.0873 O   0  0  0  0  0  2           0  0  0
   -2.7474   -0.0001    2.2993 O   0  0  0  0  0  2           0  0  0
    5.1203   -1.0284   -5.0680 O   0  0  0  0  0  2           0  0  0
   -0.6706    0.0000    1.1725 N   0  0  0  0  0  3           0  0  0
   -0.6200   -0.0021   -1.2031 N   0  0  0  0  0  3           0  0  0
   -4.1112    0.0204   -0.0969 N   0  0  0  0  0  3           0  0  0
    1.4054   -0.0000    0.0000 N   0  0  0  0  0  3           0  0  0
   -2.5845    0.0178   -2.4998 N   0  0  0  0  0  3           0  0  0
    6.0788    0.9731   -4.3974 N   0  0  2  0  0  3           0  0  0
   -2.0216    0.0072    1.1181 C   0  0  0  0  0  4           0  0  0
    0.0000    0.0000    0.0000 C   0  0  0  0  0  4           0  0  0
   -1.9763   -0.0118   -1.2451 C   0  0  0  0  0  4           0  0  0
   -2.7356    0.0183   -0.0756 C   0  0  0  0  0  4           0  0  0
    2.3178   -0.0000   -1.0577 C   0  0  0  0  0  4           0  0  0
    4.2122   -0.0614   -3.1580 C   0  0  0  0  0  4           0  0  0
    3.5687   -0.6114   -0.8867 C   0  0  0  0  0  4           0  0  0
    2.0334    0.5820   -2.3009 C   0  0  0  0  0  4           0  0  0
    4.5093   -0.6433   -1.9220 C   0  0  0  0  0  4           0  0  0
    2.9686    0.5526   -3.3410 C   0  0  0  0  0  4           0  0  0
    5.1692   -0.0782   -4.2863 C   0  0  0  0  0  4           0  0  0
   -1.9459   -0.0149    3.4806 C   0  0  0  0  0  4           0  0  0
    7.0327    0.9693   -5.4888 C   0  0  0  0  0  4           0  0  0
    6.1507    2.0970   -3.4577 C   0  0  0  0  0  4           0  0  0
   -2.8472   -0.0218    4.7137 C   0  0  2  0  0  4           0  0  0
   -3.7367    1.2290    4.7309 C   0  0  0  0  0  4           0  0  0
   -2.0225   -0.1278    6.0079 C   0  0  0  0  0  4           0  0  0
   -4.6131    1.2879    5.9792 C   0  0  0  0  0  4           0  0  0
   -2.9050   -0.0588    7.2524 C   0  0  0  0  0  4           0  0  0
   -3.7813    1.1890    7.2532 C   0  0  0  0  0  4           0  0  0
    8.3237    0.2604   -5.1156 C   0  0  0  0  0  4           0  0  0
    5.2551    3.2501   -3.8780 C   0  0  0  0  0  4           0  0  0
  1  6  2  0     0  0
  2 10  1  0     0  0
  2 21  1  0     0  0
  3 20  2  0     0  0
  4 10  2  0     0  0
  4 11  1  0     0  0
  5 11  2  0     0  0
  5 12  1  0     0  0
  6 13  1  0     0  0
  7 11  1  0     0  0
  7 14  1  0     0  0
  8 12  1  0     0  0
  9 20  1  0     0  0
  9 22  1  0     0  0
  9 23  1  0     0  0
 10 13  1  0     0  0
 12 13  2  0     0  0
 14 16  2  0     0  0
 14 17  1  0     0  0
 15 18  2  0     0  0
 15 19  1  0     0  0
 15 20  1  0     0  0
 16 18  1  0     0  0
 17 19  2  0     0  0
 21 24  1  0     0  0
 22 30  1  0     0  0
 23 31  1  0     0  0
 24 25  1  0     0  0
 24 26  1  0     0  0
 25 27  1  0     0  0
 26 28  1  0     0  0
 27 29  1  0     0  0
 28 29  1  0     0  0
M  END
> <Compound >
6

> <standard_type>
pIC50

> <# Confs.>
25

> <canonical_smiles>
NC1=C(N=O)C(OCC2CCCCC2)=NC(NC3=CC=C(C(N(CC)CC)=O)C=C3)=N1

> <standard_relation>
=

> <predicted_activity_value>
6.604673606930649

> <actual_activity_value>
6.698970004336019

> <Publication ID>
nan

> <standard_units>
nM

> hash
11749655514688934920

$$$$
5
XXILIB    08252103513D 0   0.00000     0.00000

 31 33  0     1  0            999 V2000
   -4.6010   -0.5351   -1.0873 O   0  0  0  0  0  2           0  0  0
   -2.7474   -0.0001    2.2993 O   0  0  0  0  0  2           0  0  0
    5.5601    1.1394    4.6886 O   0  0  0  0  0  2           0  0  0
   -0.6706   -0.0000    1.1725 N   0  0  0  0  0  3           0  0  0
   -0.6200   -0.0021   -1.2031 N   0  0  0  0  0  3           0  0  0
   -4.1112    0.0204   -0.0969 N   0  0  0  0  0  3           0  0  0
    1.4054    0.0000    0.0000 N   0  0  0  0  0  3           0  0  0
   -2.5845    0.0178   -2.4998 N   0  0  0  0  0  3           0  0  0
    5.6428   -1.1759    4.7735 N   0  0  2  0  0  3           0  0  0
   -2.0216    0.0072    1.1181 C   0  0  0  0  0  4           0  0  0
    0.0000    0.0000    0.0000 C   0  0  0  0  0  4           0  0  0
   -1.9763   -0.0118   -1.2451 C   0  0  0  0  0  4           0  0  0
   -2.7356    0.0183   -0.0756 C   0  0  0  0  0  4           0  0  0
    2.3178    0.0000    1.0577 C   0  0  0  0  0  4           0  0  0
    4.2291    0.0220    3.1434 C   0  0  0  0  0  4           0  0  0
    3.6928    0.0000    0.7797 C   0  0  0  0  0  4           0  0  0
    1.9173    0.0097    2.4011 C   0  0  0  0  0  4           0  0  0
    4.6418    0.0097    1.8077 C   0  0  0  0  0  4           0  0  0
    2.8607    0.0207    3.4341 C   0  0  0  0  0  4           0  0  0
    5.1937    0.0426    4.2651 C   0  0  0  0  0  4           0  0  0
   -2.0976   -0.6640    3.3833 C   0  0  0  0  0  4           0  0  0
    6.5972   -1.1773    5.8645 C   0  0  0  0  0  4           0  0  0
    5.2214   -2.4833    4.2593 C   0  0  0  0  0  4           0  0  0
   -2.9847   -0.6099    4.6256 C   0  0  2  0  0  4           0  0  0
   -2.2996   -1.3202    5.8012 C   0  0  0  0  0  4           0  0  0
   -4.3709   -1.2168    4.3491 C   0  0  0  0  0  4           0  0  0
   -3.1802   -1.3376    7.0479 C   0  0  0  0  0  4           0  0  0
   -5.2427   -1.2393    5.6027 C   0  0  0  0  0  4           0  0  0
   -4.5473   -1.9481    6.7598 C   0  0  0  0  0  4           0  0  0
    5.9128   -1.1817    7.2210 C   0  0  0  0  0  4           0  0  0
    6.1291   -2.9779    3.1458 C   0  0  0  0  0  4           0  0  0
  1  6  2  0     0  0
  2 10  1  0     0  0
  2 21  1  0     0  0
  3 20  2  0     0  0
  4 10  2  0     0  0
  4 11  1  0     0  0
  5 11  2  0     0  0
  5 12  1  0     0  0
  6 13  1  0     0  0
  7 11  1  0     0  0
  7 14  1  0     0  0
  8 12  1  0     0  0
  9 20  1  0     0  0
  9 22  1  0     0  0
  9 23  1  0     0  0
 10 13  1  0     0  0
 12 13  2  0     0  0
 14 16  2  0     0  0
 14 17  1  0     0  0
 15 18  2  0     0  0
 15 19  1  0     0  0
 15 20  1  0     0  0
 16 18  1  0     0  0
 17 19  2  0     0  0
 21 24  1  0     0  0
 22 30  1  0     0  0
 23 31  1  0     0  0
 24 25  1  0     0  0
 24 26  1  0     0  0
 25 27  1  0     0  0
 26 28  1  0     0  0
 27 29  1  0     0  0
 28 29  1  0     0  0
M  END
> <Compound >
6

> <standard_type>
pIC50

> <# Confs.>
25

> <canonical_smiles>
NC1=C(N=O)C(OCC2CCCCC2)=NC(NC3=CC=C(C(N(CC)CC)=O)C=C3)=N1

> <standard_relation>
=

> <predicted_activity_value>
6.604673606930649

> <actual_activity_value>
6.698970004336019

> <Publication ID>
nan

> <standard_units>
nM

> hash
11749655514688934920

$$$$
5
XXILIB    08252103513D 0   0.00000     0.00000

 31 33  0     1  0            999 V2000
   -4.5994    0.5941   -1.0776 O   0  0  0  0  0  2           0  0  0
   -2.7474   -0.0001    2.2993 O   0  0  0  0  0  2           0  0  0
    5.1203    1.0284    5.0680 O   0  0  0  0  0  2           0  0  0
   -0.6706    0.0000    1.1725 N   0  0  0  0  0  3           0  0  0
   -0.6200   -0.0021   -1.2031 N   0  0  0  0  0  3           0  0  0
   -4.1112    0.0204   -0.0969 N   0  0  0  0  0  3           0  0  0
    1.4054    0.0000   -0.0000 N   0  0  0  0  0  3           0  0  0
   -2.5845    0.0178   -2.4998 N   0  0  0  0  0  3           0  0  0
    6.0788   -0.9731    4.3974 N   0  0  2  0  0  3           0  0  0
   -2.0216    0.0072    1.1181 C   0  0  0  0  0  4           0  0  0
    0.0000    0.0000    0.0000 C   0  0  0  0  0  4           0  0  0
   -1.9763   -0.0118   -1.2451 C   0  0  0  0  0  4           0  0  0
   -2.7356    0.0183   -0.0756 C   0  0  0  0  0  4           0  0  0
    2.3178    0.0000    1.0577 C   0  0  0  0  0  4           0  0  0
    4.2122    0.0614    3.1580 C   0  0  0  0  0  4           0  0  0
    3.5687    0.6114    0.8867 C   0  0  0  0  0  4           0  0  0
    2.0334   -0.5820    2.3009 C   0  0  0  0  0  4           0  0  0
    4.5093    0.6433    1.9220 C   0  0  0  0  0  4           0  0  0
    2.9686   -0.5526    3.3410 C   0  0  0  0  0  4           0  0  0
    5.1692    0.0782    4.2863 C   0  0  0  0  0  4           0  0  0
   -1.9459   -0.0149    3.4806 C   0  0  0  0  0  4           0  0  0
    7.0327   -0.9693    5.4888 C   0  0  0  0  0  4           0  0  0
    6.1507   -2.0970    3.4577 C   0  0  0  0  0  4           0  0  0
   -2.8472   -0.0218    4.7137 C   0  0  2  0  0  4           0  0  0
   -3.7752   -1.2494    4.7586 C   0  0  0  0  0  4           0  0  0
   -2.0256    0.0776    6.0077 C   0  0  0  0  0  4           0  0  0
   -3.0350   -2.5432    5.0946 C   0  0  0  0  0  4           0  0  0
   -1.2827   -1.2151    6.3408 C   0  0  0  0  0  4           0  0  0
   -2.2290   -2.4111    6.3831 C   0  0  0  0  0  4           0  0  0
    8.3237   -0.2604    5.1156 C   0  0  0  0  0  4           0  0  0
    5.2551   -3.2501    3.8780 C   0  0  0  0  0  4           0  0  0
  1  6  2  0     0  0
  2 10  1  0     0  0
  2 21  1  0     0  0
  3 20  2  0     0  0
  4 10  2  0     0  0
  4 11  1  0     0  0
  5 11  2  0     0  0
  5 12  1  0     0  0
  6 13  1  0     0  0
  7 11  1  0     0  0
  7 14  1  0     0  0
  8 12  1  0     0  0
  9 20  1  0     0  0
  9 22  1  0     0  0
  9 23  1  0     0  0
 10 13  1  0     0  0
 12 13  2  0     0  0
 14 16  2  0     0  0
 14 17  1  0     0  0
 15 18  2  0     0  0
 15 19  1  0     0  0
 15 20  1  0     0  0
 16 18  1  0     0  0
 17 19  2  0     0  0
 21 24  1  0     0  0
 22 30  1  0     0  0
 23 31  1  0     0  0
 24 25  1  0     0  0
 24 26  1  0     0  0
 25 27  1  0     0  0
 26 28  1  0     0  0
 27 29  1  0     0  0
 28 29  1  0     0  0
M  END
> <Compound >
6

> <standard_type>
pIC50

> <# Confs.>
25

> <canonical_smiles>
NC1=C(N=O)C(OCC2CCCCC2)=NC(NC3=CC=C(C(N(CC)CC)=O)C=C3)=N1

> <standard_relation>
=

> <predicted_activity_value>
6.604673606930649

> <actual_activity_value>
6.698970004336019

> <Publication ID>
nan

> <standard_units>
nM

> hash
11749655514688934920

$$$$
5
XXILIB    08252103513D 0   0.00000     0.00000

 31 33  0     1  0            999 V2000
   -4.6010   -0.5351   -1.0873 O   0  0  0  0  0  2           0  0  0
   -2.7474   -0.0001    2.2993 O   0  0  0  0  0  2           0  0  0
    5.5601    1.1394    4.6886 O   0  0  0  0  0  2           0  0  0
   -0.6706   -0.0000    1.1725 N   0  0  0  0  0  3           0  0  0
   -0.6200   -0.0021   -1.2031 N   0  0  0  0  0  3           0  0  0
   -4.1112    0.0204   -0.0969 N   0  0  0  0  0  3           0  0  0
    1.4054    0.0000    0.0000 N   0  0  0  0  0  3           0  0  0
   -2.5845    0.0178   -2.4998 N   0  0  0  0  0  3           0  0  0
    5.6428   -1.1759    4.7735 N   0  0  2  0  0  3           0  0  0
   -2.0216    0.0072    1.1181 C   0  0  0  0  0  4           0  0  0
    0.0000    0.0000    0.0000 C   0  0  0  0  0  4           0  0  0
   -1.9763   -0.0118   -1.2451 C   0  0  0  0  0  4           0  0  0
   -2.7356    0.0183   -0.0756 C   0  0  0  0  0  4           0  0  0
    2.3178    0.0000    1.0577 C   0  0  0  0  0  4           0  0  0
    4.2291    0.0220    3.1434 C   0  0  0  0  0  4           0  0  0
    3.6928    0.0000    0.7797 C   0  0  0  0  0  4           0  0  0
    1.9173    0.0097    2.4011 C   0  0  0  0  0  4           0  0  0
    4.6418    0.0097    1.8077 C   0  0  0  0  0  4           0  0  0
    2.8607    0.0207    3.4341 C   0  0  0  0  0  4           0  0  0
    5.1937    0.0426    4.2651 C   0  0  0  0  0  4           0  0  0
   -2.0976   -0.6640    3.3833 C   0  0  0  0  0  4           0  0  0
    6.5972   -1.1773    5.8645 C   0  0  0  0  0  4           0  0  0
    5.2214   -2.4833    4.2593 C   0  0  0  0  0  4           0  0  0
   -2.9847   -0.6099    4.6256 C   0  0  2  0  0  4           0  0  0
   -3.2553    0.8474    5.0243 C   0  0  0  0  0  4           0  0  0
   -2.3593   -1.3922    5.7931 C   0  0  0  0  0  4           0  0  0
   -4.0927    0.9439    6.2969 C   0  0  0  0  0  4           0  0  0
   -3.1977   -1.2834    7.0650 C   0  0  0  0  0  4           0  0  0
   -3.4567    0.1700    7.4463 C   0  0  0  0  0  4           0  0  0
    5.9128   -1.1817    7.2210 C   0  0  0  0  0  4           0  0  0
    6.1291   -2.9779    3.1458 C   0  0  0  0  0  4           0  0  0
  1  6  2  0     0  0
  2 10  1  0     0  0
  2 21  1  0     0  0
  3 20  2  0     0  0
  4 10  2  0     0  0
  4 11  1  0     0  0
  5 11  2  0     0  0
  5 12  1  0     0  0
  6 13  1  0     0  0
  7 11  1  0     0  0
  7 14  1  0     0  0
  8 12  1  0     0  0
  9 20  1  0     0  0
  9 22  1  0     0  0
  9 23  1  0     0  0
 10 13  1  0     0  0
 12 13  2  0     0  0
 14 16  2  0     0  0
 14 17  1  0     0  0
 15 18  2  0     0  0
 15 19  1  0     0  0
 15 20  1  0     0  0
 16 18  1  0     0  0
 17 19  2  0     0  0
 21 24  1  0     0  0
 22 30  1  0     0  0
 23 31  1  0     0  0
 24 25  1  0     0  0
 24 26  1  0     0  0
 25 27  1  0     0  0
 26 28  1  0     0  0
 27 29  1  0     0  0
 28 29  1  0     0  0
M  END
> <Compound >
6

> <standard_type>
pIC50

> <# Confs.>
25

> <canonical_smiles>
NC1=C(N=O)C(OCC2CCCCC2)=NC(NC3=CC=C(C(N(CC)CC)=O)C=C3)=N1

> <standard_relation>
=

> <predicted_activity_value>
6.604673606930649

> <actual_activity_value>
6.698970004336019

> <Publication ID>
nan

> <standard_units>
nM

> hash
11749655514688934920

$$$$
5
XXILIB    08252103513D 0   0.00000     0.00000

 31 33  0     1  0            999 V2000
   -4.6010   -0.5351   -1.0873 O   0  0  0  0  0  2           0  0  0
   -2.7474   -0.0001    2.2993 O   0  0  0  0  0  2           0  0  0
    5.5601    1.1394    4.6886 O   0  0  0  0  0  2           0  0  0
   -0.6706    0.0000    1.1725 N   0  0  0  0  0  3           0  0  0
   -0.6200   -0.0021   -1.2031 N   0  0  0  0  0  3           0  0  0
   -4.1112    0.0204   -0.0969 N   0  0  0  0  0  3           0  0  0
    1.4054    0.0000    0.0000 N   0  0  0  0  0  3           0  0  0
   -2.5845    0.0178   -2.4998 N   0  0  0  0  0  3           0  0  0
    5.6428   -1.1759    4.7735 N   0  0  2  0  0  3           0  0  0
   -2.0216    0.0072    1.1181 C   0  0  0  0  0  4           0  0  0
    0.0000    0.0000    0.0000 C   0  0  0  0  0  4           0  0  0
   -1.9763   -0.0118   -1.2451 C   0  0  0  0  0  4           0  0  0
   -2.7356    0.0183   -0.0756 C   0  0  0  0  0  4           0  0  0
    2.3178    0.0000    1.0577 C   0  0  0  0  0  4           0  0  0
    4.2291    0.0220    3.1434 C   0  0  0  0  0  4           0  0  0
    3.6928    0.0000    0.7797 C   0  0  0  0  0  4           0  0  0
    1.9173    0.0097    2.4011 C   0  0  0  0  0  4           0  0  0
    4.6418    0.0097    1.8077 C   0  0  0  0  0  4           0  0  0
    2.8607    0.0207    3.4341 C   0  0  0  0  0  4           0  0  0
    5.1937    0.0426    4.2651 C   0  0  0  0  0  4           0  0  0
   -2.0912    0.6373    3.3953 C   0  0  0  0  0  4           0  0  0
    6.5972   -1.1773    5.8645 C   0  0  0  0  0  4           0  0  0
    5.2214   -2.4833    4.2593 C   0  0  0  0  0  4           0  0  0
   -2.9789    0.5691    4.6364 C   0  0  2  0  0  4           0  0  0
   -3.2639   -0.8926    5.0083 C   0  0  0  0  0  4           0  0  0
   -4.2885    1.3492    4.4302 C   0  0  0  0  0  4           0  0  0
   -4.1962   -1.0030    6.2119 C   0  0  0  0  0  4           0  0  0
   -5.2198    1.2265    5.6343 C   0  0  0  0  0  4           0  0  0
   -5.4921   -0.2310    5.9897 C   0  0  0  0  0  4           0  0  0
    5.9128   -1.1817    7.2210 C   0  0  0  0  0  4           0  0  0
    6.1291   -2.9779    3.1458 C   0  0  0  0  0  4           0  0  0
  1  6  2  0     0  0
  2 10  1  0     0  0
  2 21  1  0     0  0
  3 20  2  0     0  0
  4 10  2  0     0  0
  4 11  1  0     0  0
  5 11  2  0     0  0
  5 12  1  0     0  0
  6 13  1  0     0  0
  7 11  1  0     0  0
  7 14  1  0     0  0
  8 12  1  0     0  0
  9 20  1  0     0  0
  9 22  1  0     0  0
  9 23  1  0     0  0
 10 13  1  0     0  0
 12 13  2  0     0  0
 14 16  2  0     0  0
 14 17  1  0     0  0
 15 18  2  0     0  0
 15 19  1  0     0  0
 15 20  1  0     0  0
 16 18  1  0     0  0
 17 19  2  0     0  0
 21 24  1  0     0  0
 22 30  1  0     0  0
 23 31  1  0     0  0
 24 25  1  0     0  0
 24 26  1  0     0  0
 25 27  1  0     0  0
 26 28  1  0     0  0
 27 29  1  0     0  0
 28 29  1  0     0  0
M  END
> <Compound >
6

> <standard_type>
pIC50

> <# Confs.>
25

> <canonical_smiles>
NC1=C(N=O)C(OCC2CCCCC2)=NC(NC3=CC=C(C(N(CC)CC)=O)C=C3)=N1

> <standard_relation>
=

> <predicted_activity_value>
6.604673606930649

> <actual_activity_value>
6.698970004336019

> <Publication ID>
nan

> <standard_units>
nM

> hash
11749655514688934920

$$$$
5
XXILIB    08252103513D 0   0.00000     0.00000

 31 33  0     1  0            999 V2000
   -4.6010   -0.5351   -1.0873 O   0  0  0  0  0  2           0  0  0
   -2.7474   -0.0001    2.2993 O   0  0  0  0  0  2           0  0  0
    5.1203   -1.0284   -5.0680 O   0  0  0  0  0  2           0  0  0
   -0.6706    0.0000    1.1725 N   0  0  0  0  0  3           0  0  0
   -0.6200   -0.0021   -1.2031 N   0  0  0  0  0  3           0  0  0
   -4.1112    0.0204   -0.0969 N   0  0  0  0  0  3           0  0  0
    1.4054   -0.0000    0.0000 N   0  0  0  0  0  3           0  0  0
   -2.5845    0.0178   -2.4998 N   0  0  0  0  0  3           0  0  0
    6.0788    0.9731   -4.3974 N   0  0  2  0  0  3           0  0  0
   -2.0216    0.0072    1.1181 C   0  0  0  0  0  4           0  0  0
    0.0000    0.0000    0.0000 C   0  0  0  0  0  4           0  0  0
   -1.9763   -0.0118   -1.2451 C   0  0  0  0  0  4           0  0  0
   -2.7356    0.0183   -0.0756 C   0  0  0  0  0  4           0  0  0
    2.3178   -0.0000   -1.0577 C   0  0  0  0  0  4           0  0  0
    4.2122   -0.0614   -3.1580 C   0  0  0  0  0  4           0  0  0
    3.5687   -0.6114   -0.8867 C   0  0  0  0  0  4           0  0  0
    2.0334    0.5820   -2.3009 C   0  0  0  0  0  4           0  0  0
    4.5093   -0.6433   -1.9220 C   0  0  0  0  0  4           0  0  0
    2.9686    0.5526   -3.3410 C   0  0  0  0  0  4           0  0  0
    5.1692   -0.0782   -4.2863 C   0  0  0  0  0  4           0  0  0
   -1.9459   -0.0149    3.4806 C   0  0  0  0  0  4           0  0  0
    7.0327    0.9693   -5.4888 C   0  0  0  0  0  4           0  0  0
    6.1507    2.0970   -3.4577 C   0  0  0  0  0  4           0  0  0
   -2.8472   -0.0218    4.7137 C   0  0  2  0  0  4           0  0  0
   -3.7490   -1.2639    4.7080 C   0  0  0  0  0  4           0  0  0
   -3.6850    1.2653    4.8005 C   0  0  0  0  0  4           0  0  0
   -4.7064   -1.2785    5.8967 C   0  0  0  0  0  4           0  0  0
   -4.6469    1.2395    5.9864 C   0  0  0  0  0  4           0  0  0
   -5.5344   -0.0001    5.9651 C   0  0  0  0  0  4           0  0  0
    8.3237    0.2604   -5.1156 C   0  0  0  0  0  4           0  0  0
    5.2551    3.2501   -3.8780 C   0  0  0  0  0  4           0  0  0
  1  6  2  0     0  0
  2 10  1  0     0  0
  2 21  1  0     0  0
  3 20  2  0     0  0
  4 10  2  0     0  0
  4 11  1  0     0  0
  5 11  2  0     0  0
  5 12  1  0     0  0
  6 13  1  0     0  0
  7 11  1  0     0  0
  7 14  1  0     0  0
  8 12  1  0     0  0
  9 20  1  0     0  0
  9 22  1  0     0  0
  9 23  1  0     0  0
 10 13  1  0     0  0
 12 13  2  0     0  0
 14 16  2  0     0  0
 14 17  1  0     0  0
 15 18  2  0     0  0
 15 19  1  0     0  0
 15 20  1  0     0  0
 16 18  1  0     0  0
 17 19  2  0     0  0
 21 24  1  0     0  0
 22 30  1  0     0  0
 23 31  1  0     0  0
 24 25  1  0     0  0
 24 26  1  0     0  0
 25 27  1  0     0  0
 26 28  1  0     0  0
 27 29  1  0     0  0
 28 29  1  0     0  0
M  END
> <Compound >
6

> <standard_type>
pIC50

> <# Confs.>
25

> <canonical_smiles>
NC1=C(N=O)C(OCC2CCCCC2)=NC(NC3=CC=C(C(N(CC)CC)=O)C=C3)=N1

> <standard_relation>
=

> <predicted_activity_value>
6.604673606930649

> <actual_activity_value>
6.698970004336019

> <Publication ID>
nan

> <standard_units>
nM

> hash
11749655514688934920

$$$$
5
XXILIB    08252103513D 0   0.00000     0.00000

 31 33  0     1  0            999 V2000
   -4.6010   -0.5351   -1.0873 O   0  0  0  0  0  2           0  0  0
   -2.7474   -0.0001    2.2993 O   0  0  0  0  0  2           0  0  0
    5.5601    1.1394    4.6886 O   0  0  0  0  0  2           0  0  0
   -0.6706   -0.0000    1.1725 N   0  0  0  0  0  3           0  0  0
   -0.6200   -0.0021   -1.2031 N   0  0  0  0  0  3           0  0  0
   -4.1112    0.0204   -0.0969 N   0  0  0  0  0  3           0  0  0
    1.4054    0.0000    0.0000 N   0  0  0  0  0  3           0  0  0
   -2.5845    0.0178   -2.4998 N   0  0  0  0  0  3           0  0  0
    5.6428   -1.1759    4.7735 N   0  0  2  0  0  3           0  0  0
   -2.0216    0.0072    1.1181 C   0  0  0  0  0  4           0  0  0
    0.0000    0.0000    0.0000 C   0  0  0  0  0  4           0  0  0
   -1.9763   -0.0118   -1.2451 C   0  0  0  0  0  4           0  0  0
   -2.7356    0.0183   -0.0756 C   0  0  0  0  0  4           0  0  0
    2.3178    0.0000    1.0577 C   0  0  0  0  0  4           0  0  0
    4.2291    0.0220    3.1434 C   0  0  0  0  0  4           0  0  0
    3.6928    0.0000    0.7797 C   0  0  0  0  0  4           0  0  0
    1.9173    0.0097    2.4011 C   0  0  0  0  0  4           0  0  0
    4.6418    0.0097    1.8077 C   0  0  0  0  0  4           0  0  0
    2.8607    0.0207    3.4341 C   0  0  0  0  0  4           0  0  0
    5.1937    0.0426    4.2651 C   0  0  0  0  0  4           0  0  0
   -2.0976   -0.6640    3.3833 C   0  0  0  0  0  4           0  0  0
    6.5972   -1.1773    5.8645 C   0  0  0  0  0  4           0  0  0
    5.2214   -2.4833    4.2593 C   0  0  0  0  0  4           0  0  0
   -2.9847   -0.6099    4.6256 C   0  0  2  0  0  4           0  0  0
   -2.2996   -1.3202    5.8012 C   0  0  0  0  0  4           0  0  0
   -4.3709   -1.2168    4.3491 C   0  0  0  0  0  4           0  0  0
   -3.1802   -1.3376    7.0479 C   0  0  0  0  0  4           0  0  0
   -5.2427   -1.2393    5.6027 C   0  0  0  0  0  4           0  0  0
   -4.5473   -1.9481    6.7598 C   0  0  0  0  0  4           0  0  0
    8.0327   -1.1740    5.3667 C   0  0  0  0  0  4           0  0  0
    3.9859   -3.0056    4.9729 C   0  0  0  0  0  4           0  0  0
  1  6  2  0     0  0
  2 10  1  0     0  0
  2 21  1  0     0  0
  3 20  2  0     0  0
  4 10  2  0     0  0
  4 11  1  0     0  0
  5 11  2  0     0  0
  5 12  1  0     0  0
  6 13  1  0     0  0
  7 11  1  0     0  0
  7 14  1  0     0  0
  8 12  1  0     0  0
  9 20  1  0     0  0
  9 22  1  0     0  0
  9 23  1  0     0  0
 10 13  1  0     0  0
 12 13  2  0     0  0
 14 16  2  0     0  0
 14 17  1  0     0  0
 15 18  2  0     0  0
 15 19  1  0     0  0
 15 20  1  0     0  0
 16 18  1  0     0  0
 17 19  2  0     0  0
 21 24  1  0     0  0
 22 30  1  0     0  0
 23 31  1  0     0  0
 24 25  1  0     0  0
 24 26  1  0     0  0
 25 27  1  0     0  0
 26 28  1  0     0  0
 27 29  1  0     0  0
 28 29  1  0     0  0
M  END
> <Compound >
6

> <standard_type>
pIC50

> <# Confs.>
25

> <canonical_smiles>
NC1=C(N=O)C(OCC2CCCCC2)=NC(NC3=CC=C(C(N(CC)CC)=O)C=C3)=N1

> <standard_relation>
=

> <predicted_activity_value>
6.604673606930649

> <actual_activity_value>
6.698970004336019

> <Publication ID>
nan

> <standard_units>
nM

> hash
11749655514688934920

$$$$
5
XXILIB    08252103513D 0   0.00000     0.00000

 31 33  0     1  0            999 V2000
   -4.6010   -0.5351   -1.0873 O   0  0  0  0  0  2           0  0  0
   -2.7474   -0.0001    2.2993 O   0  0  0  0  0  2           0  0  0
    5.5601    1.1394    4.6886 O   0  0  0  0  0  2           0  0  0
   -0.6706   -0.0000    1.1725 N   0  0  0  0  0  3           0  0  0
   -0.6200   -0.0021   -1.2031 N   0  0  0  0  0  3           0  0  0
   -4.1112    0.0204   -0.0969 N   0  0  0  0  0  3           0  0  0
    1.4054    0.0000    0.0000 N   0  0  0  0  0  3           0  0  0
   -2.5845    0.0178   -2.4998 N   0  0  0  0  0  3           0  0  0
    5.6428   -1.1759    4.7735 N   0  0  2  0  0  3           0  0  0
   -2.0216    0.0072    1.1181 C   0  0  0  0  0  4           0  0  0
    0.0000    0.0000    0.0000 C   0  0  0  0  0  4           0  0  0
   -1.9763   -0.0118   -1.2451 C   0  0  0  0  0  4           0  0  0
   -2.7356    0.0183   -0.0756 C   0  0  0  0  0  4           0  0  0
    2.3178    0.0000    1.0577 C   0  0  0  0  0  4           0  0  0
    4.2291    0.0220    3.1434 C   0  0  0  0  0  4           0  0  0
    3.6928    0.0000    0.7797 C   0  0  0  0  0  4           0  0  0
    1.9173    0.0097    2.4011 C   0  0  0  0  0  4           0  0  0
    4.6418    0.0097    1.8077 C   0  0  0  0  0  4           0  0  0
    2.8607    0.0207    3.4341 C   0  0  0  0  0  4           0  0  0
    5.1937    0.0426    4.2651 C   0  0  0  0  0  4           0  0  0
   -2.0976   -0.6640    3.3833 C   0  0  0  0  0  4           0  0  0
    6.5972   -1.1773    5.8645 C   0  0  0  0  0  4           0  0  0
    5.2214   -2.4833    4.2593 C   0  0  0  0  0  4           0  0  0
   -2.9847   -0.6099    4.6256 C   0  0  2  0  0  4           0  0  0
   -3.2553    0.8474    5.0243 C   0  0  0  0  0  4           0  0  0
   -2.3593   -1.3922    5.7931 C   0  0  0  0  0  4           0  0  0
   -4.0927    0.9439    6.2969 C   0  0  0  0  0  4           0  0  0
   -3.1977   -1.2834    7.0650 C   0  0  0  0  0  4           0  0  0
   -3.4567    0.1700    7.4463 C   0  0  0  0  0  4           0  0  0
    8.0327   -1.1740    5.3667 C   0  0  0  0  0  4           0  0  0
    3.9859   -3.0056    4.9729 C   0  0  0  0  0  4           0  0  0
  1  6  2  0     0  0
  2 10  1  0     0  0
  2 21  1  0     0  0
  3 20  2  0     0  0
  4 10  2  0     0  0
  4 11  1  0     0  0
  5 11  2  0     0  0
  5 12  1  0     0  0
  6 13  1  0     0  0
  7 11  1  0     0  0
  7 14  1  0     0  0
  8 12  1  0     0  0
  9 20  1  0     0  0
  9 22  1  0     0  0
  9 23  1  0     0  0
 10 13  1  0     0  0
 12 13  2  0     0  0
 14 16  2  0     0  0
 14 17  1  0     0  0
 15 18  2  0     0  0
 15 19  1  0     0  0
 15 20  1  0     0  0
 16 18  1  0     0  0
 17 19  2  0     0  0
 21 24  1  0     0  0
 22 30  1  0     0  0
 23 31  1  0     0  0
 24 25  1  0     0  0
 24 26  1  0     0  0
 25 27  1  0     0  0
 26 28  1  0     0  0
 27 29  1  0     0  0
 28 29  1  0     0  0
M  END
> <Compound >
6

> <standard_type>
pIC50

> <# Confs.>
25

> <canonical_smiles>
NC1=C(N=O)C(OCC2CCCCC2)=NC(NC3=CC=C(C(N(CC)CC)=O)C=C3)=N1

> <standard_relation>
=

> <predicted_activity_value>
6.604673606930649

> <actual_activity_value>
6.698970004336019

> <Publication ID>
nan

> <standard_units>
nM

> hash
11749655514688934920

$$$$
5
XXILIB    08252103513D 0   0.00000     0.00000

 31 33  0     1  0            999 V2000
   -4.6010   -0.5351   -1.0873 O   0  0  0  0  0  2           0  0  0
   -2.7474   -0.0001    2.2993 O   0  0  0  0  0  2           0  0  0
    5.5601    1.1394    4.6886 O   0  0  0  0  0  2           0  0  0
   -0.6706    0.0000    1.1725 N   0  0  0  0  0  3           0  0  0
   -0.6200   -0.0021   -1.2031 N   0  0  0  0  0  3           0  0  0
   -4.1112    0.0204   -0.0969 N   0  0  0  0  0  3           0  0  0
    1.4054    0.0000    0.0000 N   0  0  0  0  0  3           0  0  0
   -2.5845    0.0178   -2.4998 N   0  0  0  0  0  3           0  0  0
    5.6428   -1.1759    4.7735 N   0  0  2  0  0  3           0  0  0
   -2.0216    0.0072    1.1181 C   0  0  0  0  0  4           0  0  0
    0.0000    0.0000    0.0000 C   0  0  0  0  0  4           0  0  0
   -1.9763   -0.0118   -1.2451 C   0  0  0  0  0  4           0  0  0
   -2.7356    0.0183   -0.0756 C   0  0  0  0  0  4           0  0  0
    2.3178    0.0000    1.0577 C   0  0  0  0  0  4           0  0  0
    4.2291    0.0220    3.1434 C   0  0  0  0  0  4           0  0  0
    3.6928    0.0000    0.7797 C   0  0  0  0  0  4           0  0  0
    1.9173    0.0097    2.4011 C   0  0  0  0  0  4           0  0  0
    4.6418    0.0097    1.8077 C   0  0  0  0  0  4           0  0  0
    2.8607    0.0207    3.4341 C   0  0  0  0  0  4           0  0  0
    5.1937    0.0426    4.2651 C   0  0  0  0  0  4           0  0  0
   -2.0912    0.6373    3.3953 C   0  0  0  0  0  4           0  0  0
    6.5972   -1.1773    5.8645 C   0  0  0  0  0  4           0  0  0
    5.2214   -2.4833    4.2593 C   0  0  0  0  0  4           0  0  0
   -2.9789    0.5691    4.6364 C   0  0  2  0  0  4           0  0  0
   -3.2639   -0.8926    5.0083 C   0  0  0  0  0  4           0  0  0
   -4.2885    1.3492    4.4302 C   0  0  0  0  0  4           0  0  0
   -4.1962   -1.0030    6.2119 C   0  0  0  0  0  4           0  0  0
   -5.2198    1.2265    5.6343 C   0  0  0  0  0  4           0  0  0
   -5.4921   -0.2310    5.9897 C   0  0  0  0  0  4           0  0  0
    8.0327   -1.1740    5.3667 C   0  0  0  0  0  4           0  0  0
    3.9859   -3.0056    4.9729 C   0  0  0  0  0  4           0  0  0
  1  6  2  0     0  0
  2 10  1  0     0  0
  2 21  1  0     0  0
  3 20  2  0     0  0
  4 10  2  0     0  0
  4 11  1  0     0  0
  5 11  2  0     0  0
  5 12  1  0     0  0
  6 13  1  0     0  0
  7 11  1  0     0  0
  7 14  1  0     0  0
  8 12  1  0     0  0
  9 20  1  0     0  0
  9 22  1  0     0  0
  9 23  1  0     0  0
 10 13  1  0     0  0
 12 13  2  0     0  0
 14 16  2  0     0  0
 14 17  1  0     0  0
 15 18  2  0     0  0
 15 19  1  0     0  0
 15 20  1  0     0  0
 16 18  1  0     0  0
 17 19  2  0     0  0
 21 24  1  0     0  0
 22 30  1  0     0  0
 23 31  1  0     0  0
 24 25  1  0     0  0
 24 26  1  0     0  0
 25 27  1  0     0  0
 26 28  1  0     0  0
 27 29  1  0     0  0
 28 29  1  0     0  0
M  END
> <Compound >
6

> <standard_type>
pIC50

> <# Confs.>
25

> <canonical_smiles>
NC1=C(N=O)C(OCC2CCCCC2)=NC(NC3=CC=C(C(N(CC)CC)=O)C=C3)=N1

> <standard_relation>
=

> <predicted_activity_value>
6.604673606930649

> <actual_activity_value>
6.698970004336019

> <Publication ID>
nan

> <standard_units>
nM

> hash
11749655514688934920

$$$$
5
XXILIB    08252103513D 0   0.00000     0.00000

 31 33  0     1  0            999 V2000
   -4.6010   -0.5351   -1.0873 O   0  0  0  0  0  2           0  0  0
   -2.7474   -0.0001    2.2993 O   0  0  0  0  0  2           0  0  0
    5.5601    1.1394    4.6886 O   0  0  0  0  0  2           0  0  0
   -0.6706    0.0000    1.1725 N   0  0  0  0  0  3           0  0  0
   -0.6200   -0.0021   -1.2031 N   0  0  0  0  0  3           0  0  0
   -4.1112    0.0204   -0.0969 N   0  0  0  0  0  3           0  0  0
    1.4054    0.0000    0.0000 N   0  0  0  0  0  3           0  0  0
   -2.5845    0.0178   -2.4998 N   0  0  0  0  0  3           0  0  0
    5.6428   -1.1759    4.7735 N   0  0  2  0  0  3           0  0  0
   -2.0216    0.0072    1.1181 C   0  0  0  0  0  4           0  0  0
    0.0000    0.0000    0.0000 C   0  0  0  0  0  4           0  0  0
   -1.9763   -0.0118   -1.2451 C   0  0  0  0  0  4           0  0  0
   -2.7356    0.0183   -0.0756 C   0  0  0  0  0  4           0  0  0
    2.3178    0.0000    1.0577 C   0  0  0  0  0  4           0  0  0
    4.2291    0.0220    3.1434 C   0  0  0  0  0  4           0  0  0
    3.6928    0.0000    0.7797 C   0  0  0  0  0  4           0  0  0
    1.9173    0.0097    2.4011 C   0  0  0  0  0  4           0  0  0
    4.6418    0.0097    1.8077 C   0  0  0  0  0  4           0  0  0
    2.8607    0.0207    3.4341 C   0  0  0  0  0  4           0  0  0
    5.1937    0.0426    4.2651 C   0  0  0  0  0  4           0  0  0
   -1.9459   -0.0149    3.4806 C   0  0  0  0  0  4           0  0  0
    6.5972   -1.1773    5.8645 C   0  0  0  0  0  4           0  0  0
    5.2214   -2.4833    4.2593 C   0  0  0  0  0  4           0  0  0
   -2.8472   -0.0218    4.7137 C   0  0  2  0  0  4           0  0  0
   -1.9998   -0.0378    5.9934 C   0  0  0  0  0  4           0  0  0
   -3.8230   -1.2106    4.6858 C   0  0  0  0  0  4           0  0  0
   -2.8651   -0.1028    7.2491 C   0  0  0  0  0  4           0  0  0
   -4.6787   -1.2744    5.9491 C   0  0  0  0  0  4           0  0  0
   -3.8214   -1.2896    7.2100 C   0  0  0  0  0  4           0  0  0
    5.9128   -1.1817    7.2210 C   0  0  0  0  0  4           0  0  0
    3.9859   -3.0056    4.9729 C   0  0  0  0  0  4           0  0  0
  1  6  2  0     0  0
  2 10  1  0     0  0
  2 21  1  0     0  0
  3 20  2  0     0  0
  4 10  2  0     0  0
  4 11  1  0     0  0
  5 11  2  0     0  0
  5 12  1  0     0  0
  6 13  1  0     0  0
  7 11  1  0     0  0
  7 14  1  0     0  0
  8 12  1  0     0  0
  9 20  1  0     0  0
  9 22  1  0     0  0
  9 23  1  0     0  0
 10 13  1  0     0  0
 12 13  2  0     0  0
 14 16  2  0     0  0
 14 17  1  0     0  0
 15 18  2  0     0  0
 15 19  1  0     0  0
 15 20  1  0     0  0
 16 18  1  0     0  0
 17 19  2  0     0  0
 21 24  1  0     0  0
 22 30  1  0     0  0
 23 31  1  0     0  0
 24 25  1  0     0  0
 24 26  1  0     0  0
 25 27  1  0     0  0
 26 28  1  0     0  0
 27 29  1  0     0  0
 28 29  1  0     0  0
M  END
> <Compound >
6

> <standard_type>
pIC50

> <# Confs.>
25

> <canonical_smiles>
NC1=C(N=O)C(OCC2CCCCC2)=NC(NC3=CC=C(C(N(CC)CC)=O)C=C3)=N1

> <standard_relation>
=

> <predicted_activity_value>
6.604673606930649

> <actual_activity_value>
6.698970004336019

> <Publication ID>
nan

> <standard_units>
nM

> hash
11749655514688934920

$$$$
5
XXILIB    08252103513D 0   0.00000     0.00000

 31 33  0     1  0            999 V2000
   -4.6010   -0.5351   -1.0873 O   0  0  0  0  0  2           0  0  0
   -2.7474   -0.0001    2.2993 O   0  0  0  0  0  2           0  0  0
    5.5601    1.1394    4.6886 O   0  0  0  0  0  2           0  0  0
   -0.6706    0.0000    1.1725 N   0  0  0  0  0  3           0  0  0
   -0.6200   -0.0021   -1.2031 N   0  0  0  0  0  3           0  0  0
   -4.1112    0.0204   -0.0969 N   0  0  0  0  0  3           0  0  0
    1.4054    0.0000    0.0000 N   0  0  0  0  0  3           0  0  0
   -2.5845    0.0178   -2.4998 N   0  0  0  0  0  3           0  0  0
    5.6428   -1.1759    4.7735 N   0  0  2  0  0  3           0  0  0
   -2.0216    0.0072    1.1181 C   0  0  0  0  0  4           0  0  0
    0.0000    0.0000    0.0000 C   0  0  0  0  0  4           0  0  0
   -1.9763   -0.0118   -1.2451 C   0  0  0  0  0  4           0  0  0
   -2.7356    0.0183   -0.0756 C   0  0  0  0  0  4           0  0  0
    2.3178    0.0000    1.0577 C   0  0  0  0  0  4           0  0  0
    4.2291    0.0220    3.1434 C   0  0  0  0  0  4           0  0  0
    3.6928    0.0000    0.7797 C   0  0  0  0  0  4           0  0  0
    1.9173    0.0097    2.4011 C   0  0  0  0  0  4           0  0  0
    4.6418    0.0097    1.8077 C   0  0  0  0  0  4           0  0  0
    2.8607    0.0207    3.4341 C   0  0  0  0  0  4           0  0  0
    5.1937    0.0426    4.2651 C   0  0  0  0  0  4           0  0  0
   -1.9459   -0.0149    3.4806 C   0  0  0  0  0  4           0  0  0
    6.5972   -1.1773    5.8645 C   0  0  0  0  0  4           0  0  0
    5.2214   -2.4833    4.2593 C   0  0  0  0  0  4           0  0  0
   -2.8472   -0.0218    4.7137 C   0  0  2  0  0  4           0  0  0
   -3.7367    1.2290    4.7309 C   0  0  0  0  0  4           0  0  0
   -2.0225   -0.1278    6.0079 C   0  0  0  0  0  4           0  0  0
   -4.6131    1.2879    5.9792 C   0  0  0  0  0  4           0  0  0
   -2.9050   -0.0588    7.2524 C   0  0  0  0  0  4           0  0  0
   -3.7813    1.1890    7.2532 C   0  0  0  0  0  4           0  0  0
    5.9128   -1.1817    7.2210 C   0  0  0  0  0  4           0  0  0
    3.9859   -3.0056    4.9729 C   0  0  0  0  0  4           0  0  0
  1  6  2  0     0  0
  2 10  1  0     0  0
  2 21  1  0     0  0
  3 20  2  0     0  0
  4 10  2  0     0  0
  4 11  1  0     0  0
  5 11  2  0     0  0
  5 12  1  0     0  0
  6 13  1  0     0  0
  7 11  1  0     0  0
  7 14  1  0     0  0
  8 12  1  0     0  0
  9 20  1  0     0  0
  9 22  1  0     0  0
  9 23  1  0     0  0
 10 13  1  0     0  0
 12 13  2  0     0  0
 14 16  2  0     0  0
 14 17  1  0     0  0
 15 18  2  0     0  0
 15 19  1  0     0  0
 15 20  1  0     0  0
 16 18  1  0     0  0
 17 19  2  0     0  0
 21 24  1  0     0  0
 22 30  1  0     0  0
 23 31  1  0     0  0
 24 25  1  0     0  0
 24 26  1  0     0  0
 25 27  1  0     0  0
 26 28  1  0     0  0
 27 29  1  0     0  0
 28 29  1  0     0  0
M  END
> <Compound >
6

> <standard_type>
pIC50

> <# Confs.>
25

> <canonical_smiles>
NC1=C(N=O)C(OCC2CCCCC2)=NC(NC3=CC=C(C(N(CC)CC)=O)C=C3)=N1

> <standard_relation>
=

> <predicted_activity_value>
6.604673606930649

> <actual_activity_value>
6.698970004336019

> <Publication ID>
nan

> <standard_units>
nM

> hash
11749655514688934920

$$$$
5
XXILIB    08252103513D 0   0.00000     0.00000

 31 33  0     1  0            999 V2000
   -4.5994    0.5941   -1.0776 O   0  0  0  0  0  2           0  0  0
   -2.7474   -0.0001    2.2993 O   0  0  0  0  0  2           0  0  0
    5.1203    1.0284    5.0680 O   0  0  0  0  0  2           0  0  0
   -0.6706    0.0000    1.1725 N   0  0  0  0  0  3           0  0  0
   -0.6200   -0.0021   -1.2031 N   0  0  0  0  0  3           0  0  0
   -4.1112    0.0204   -0.0969 N   0  0  0  0  0  3           0  0  0
    1.4054    0.0000   -0.0000 N   0  0  0  0  0  3           0  0  0
   -2.5845    0.0178   -2.4998 N   0  0  0  0  0  3           0  0  0
    6.0788   -0.9731    4.3974 N   0  0  2  0  0  3           0  0  0
   -2.0216    0.0072    1.1181 C   0  0  0  0  0  4           0  0  0
    0.0000    0.0000    0.0000 C   0  0  0  0  0  4           0  0  0
   -1.9763   -0.0118   -1.2451 C   0  0  0  0  0  4           0  0  0
   -2.7356    0.0183   -0.0756 C   0  0  0  0  0  4           0  0  0
    2.3178    0.0000    1.0577 C   0  0  0  0  0  4           0  0  0
    4.2122    0.0614    3.1580 C   0  0  0  0  0  4           0  0  0
    3.5687    0.6114    0.8867 C   0  0  0  0  0  4           0  0  0
    2.0334   -0.5820    2.3009 C   0  0  0  0  0  4           0  0  0
    4.5093    0.6433    1.9220 C   0  0  0  0  0  4           0  0  0
    2.9686   -0.5526    3.3410 C   0  0  0  0  0  4           0  0  0
    5.1692    0.0782    4.2863 C   0  0  0  0  0  4           0  0  0
   -2.0912    0.6373    3.3953 C   0  0  0  0  0  4           0  0  0
    7.0327   -0.9693    5.4888 C   0  0  0  0  0  4           0  0  0
    6.1507   -2.0970    3.4577 C   0  0  0  0  0  4           0  0  0
   -3.1315    1.2350    4.3406 C   0  0  2  0  0  4           0  0  0
   -3.9894    2.2718    3.6023 C   0  0  0  0  0  4           0  0  0
   -2.4676    1.8545    5.5822 C   0  0  0  0  0  4           0  0  0
   -5.0053    2.9346    4.5289 C   0  0  0  0  0  4           0  0  0
   -3.4889    2.5236    6.4996 C   0  0  0  0  0  4           0  0  0
   -4.3318    3.5499    5.7505 C   0  0  0  0  0  4           0  0  0
    6.4925   -1.6753    6.7210 C   0  0  0  0  0  4           0  0  0
    7.1022   -1.8180    2.3064 C   0  0  0  0  0  4           0  0  0
  1  6  2  0     0  0
  2 10  1  0     0  0
  2 21  1  0     0  0
  3 20  2  0     0  0
  4 10  2  0     0  0
  4 11  1  0     0  0
  5 11  2  0     0  0
  5 12  1  0     0  0
  6 13  1  0     0  0
  7 11  1  0     0  0
  7 14  1  0     0  0
  8 12  1  0     0  0
  9 20  1  0     0  0
  9 22  1  0     0  0
  9 23  1  0     0  0
 10 13  1  0     0  0
 12 13  2  0     0  0
 14 16  2  0     0  0
 14 17  1  0     0  0
 15 18  2  0     0  0
 15 19  1  0     0  0
 15 20  1  0     0  0
 16 18  1  0     0  0
 17 19  2  0     0  0
 21 24  1  0     0  0
 22 30  1  0     0  0
 23 31  1  0     0  0
 24 25  1  0     0  0
 24 26  1  0     0  0
 25 27  1  0     0  0
 26 28  1  0     0  0
 27 29  1  0     0  0
 28 29  1  0     0  0
M  END
> <Compound >
6

> <standard_type>
pIC50

> <# Confs.>
25

> <canonical_smiles>
NC1=C(N=O)C(OCC2CCCCC2)=NC(NC3=CC=C(C(N(CC)CC)=O)C=C3)=N1

> <standard_relation>
=

> <predicted_activity_value>
6.604673606930649

> <actual_activity_value>
6.698970004336019

> <Publication ID>
nan

> <standard_units>
nM

> hash
11749655514688934920

$$$$
5
XXILIB    08252103513D 0   0.00000     0.00000

 31 33  0     1  0            999 V2000
   -4.6010   -0.5351   -1.0873 O   0  0  0  0  0  2           0  0  0
   -2.7474   -0.0001    2.2993 O   0  0  0  0  0  2           0  0  0
    5.5601    3.3310    3.4907 O   0  0  0  0  0  2           0  0  0
   -0.6706    0.0000    1.1725 N   0  0  0  0  0  3           0  0  0
   -0.6200   -0.0021   -1.2031 N   0  0  0  0  0  3           0  0  0
   -4.1112    0.0204   -0.0969 N   0  0  0  0  0  3           0  0  0
    1.4054    0.0000    0.0000 N   0  0  0  0  0  3           0  0  0
   -2.5845    0.0178   -2.4998 N   0  0  0  0  0  3           0  0  0
    5.6428    1.3684    4.7219 N   0  0  2  0  0  3           0  0  0
   -2.0216    0.0072    1.1181 C   0  0  0  0  0  4           0  0  0
    0.0000    0.0000    0.0000 C   0  0  0  0  0  4           0  0  0
   -1.9763   -0.0118   -1.2451 C   0  0  0  0  0  4           0  0  0
   -2.7356    0.0183   -0.0756 C   0  0  0  0  0  4           0  0  0
    2.3178    0.5288    0.9160 C   0  0  0  0  0  4           0  0  0
    4.2291    1.5907    2.7113 C   0  0  0  0  0  4           0  0  0
    3.6928    0.3898    0.6752 C   0  0  0  0  0  4           0  0  0
    1.9173    1.2089    2.0745 C   0  0  0  0  0  4           0  0  0
    4.6418    0.9123    1.5607 C   0  0  0  0  0  4           0  0  0
    2.8607    1.7350    2.9636 C   0  0  0  0  0  4           0  0  0
    5.1937    2.1695    3.6724 C   0  0  0  0  0  4           0  0  0
   -1.9459   -0.0149    3.4806 C   0  0  0  0  0  4           0  0  0
    6.5972    1.9127    5.6675 C   0  0  0  0  0  4           0  0  0
    5.2214   -0.0209    4.9303 C   0  0  0  0  0  4           0  0  0
   -2.8472   -0.0218    4.7137 C   0  0  2  0  0  4           0  0  0
   -3.7490   -1.2639    4.7080 C   0  0  0  0  0  4           0  0  0
   -3.6850    1.2653    4.8005 C   0  0  0  0  0  4           0  0  0
   -4.7064   -1.2785    5.8967 C   0  0  0  0  0  4           0  0  0
   -4.6469    1.2395    5.9864 C   0  0  0  0  0  4           0  0  0
   -5.5344   -0.0001    5.9651 C   0  0  0  0  0  4           0  0  0
    5.9128    2.5871    6.8445 C   0  0  0  0  0  4           0  0  0
    6.1291   -1.0060    4.2133 C   0  0  0  0  0  4           0  0  0
  1  6  2  0     0  0
  2 10  1  0     0  0
  2 21  1  0     0  0
  3 20  2  0     0  0
  4 10  2  0     0  0
  4 11  1  0     0  0
  5 11  2  0     0  0
  5 12  1  0     0  0
  6 13  1  0     0  0
  7 11  1  0     0  0
  7 14  1  0     0  0
  8 12  1  0     0  0
  9 20  1  0     0  0
  9 22  1  0     0  0
  9 23  1  0     0  0
 10 13  1  0     0  0
 12 13  2  0     0  0
 14 16  2  0     0  0
 14 17  1  0     0  0
 15 18  2  0     0  0
 15 19  1  0     0  0
 15 20  1  0     0  0
 16 18  1  0     0  0
 17 19  2  0     0  0
 21 24  1  0     0  0
 22 30  1  0     0  0
 23 31  1  0     0  0
 24 25  1  0     0  0
 24 26  1  0     0  0
 25 27  1  0     0  0
 26 28  1  0     0  0
 27 29  1  0     0  0
 28 29  1  0     0  0
M  END
> <Compound >
6

> <standard_type>
pIC50

> <# Confs.>
25

> <canonical_smiles>
NC1=C(N=O)C(OCC2CCCCC2)=NC(NC3=CC=C(C(N(CC)CC)=O)C=C3)=N1

> <standard_relation>
=

> <predicted_activity_value>
6.604673606930649

> <actual_activity_value>
6.698970004336019

> <Publication ID>
nan

> <standard_units>
nM

> hash
11749655514688934920

$$$$
5
XXILIB    08252103513D 0   0.00000     0.00000

 31 33  0     1  0            999 V2000
   -4.5994    0.5941   -1.0776 O   0  0  0  0  0  2           0  0  0
   -2.7474   -0.0001    2.2993 O   0  0  0  0  0  2           0  0  0
    5.1203    1.0284    5.0680 O   0  0  0  0  0  2           0  0  0
   -0.6706    0.0000    1.1725 N   0  0  0  0  0  3           0  0  0
   -0.6200   -0.0021   -1.2031 N   0  0  0  0  0  3           0  0  0
   -4.1112    0.0204   -0.0969 N   0  0  0  0  0  3           0  0  0
    1.4054    0.0000   -0.0000 N   0  0  0  0  0  3           0  0  0
   -2.5845    0.0178   -2.4998 N   0  0  0  0  0  3           0  0  0
    6.0788   -0.9731    4.3974 N   0  0  2  0  0  3           0  0  0
   -2.0216    0.0072    1.1181 C   0  0  0  0  0  4           0  0  0
    0.0000    0.0000    0.0000 C   0  0  0  0  0  4           0  0  0
   -1.9763   -0.0118   -1.2451 C   0  0  0  0  0  4           0  0  0
   -2.7356    0.0183   -0.0756 C   0  0  0  0  0  4           0  0  0
    2.3178    0.0000    1.0577 C   0  0  0  0  0  4           0  0  0
    4.2122    0.0614    3.1580 C   0  0  0  0  0  4           0  0  0
    3.5687    0.6114    0.8867 C   0  0  0  0  0  4           0  0  0
    2.0334   -0.5820    2.3009 C   0  0  0  0  0  4           0  0  0
    4.5093    0.6433    1.9220 C   0  0  0  0  0  4           0  0  0
    2.9686   -0.5526    3.3410 C   0  0  0  0  0  4           0  0  0
    5.1692    0.0782    4.2863 C   0  0  0  0  0  4           0  0  0
   -2.0912    0.6373    3.3953 C   0  0  0  0  0  4           0  0  0
    7.0327   -0.9693    5.4888 C   0  0  0  0  0  4           0  0  0
    6.1507   -2.0970    3.4577 C   0  0  0  0  0  4           0  0  0
   -3.1315    1.2350    4.3406 C   0  0  2  0  0  4           0  0  0
   -3.9894    2.2718    3.6023 C   0  0  0  0  0  4           0  0  0
   -2.4676    1.8545    5.5822 C   0  0  0  0  0  4           0  0  0
   -5.0053    2.9346    4.5289 C   0  0  0  0  0  4           0  0  0
   -3.4889    2.5236    6.4996 C   0  0  0  0  0  4           0  0  0
   -4.3318    3.5499    5.7505 C   0  0  0  0  0  4           0  0  0
    8.3237   -0.2604    5.1156 C   0  0  0  0  0  4           0  0  0
    5.2551   -3.2501    3.8780 C   0  0  0  0  0  4           0  0  0
  1  6  2  0     0  0
  2 10  1  0     0  0
  2 21  1  0     0  0
  3 20  2  0     0  0
  4 10  2  0     0  0
  4 11  1  0     0  0
  5 11  2  0     0  0
  5 12  1  0     0  0
  6 13  1  0     0  0
  7 11  1  0     0  0
  7 14  1  0     0  0
  8 12  1  0     0  0
  9 20  1  0     0  0
  9 22  1  0     0  0
  9 23  1  0     0  0
 10 13  1  0     0  0
 12 13  2  0     0  0
 14 16  2  0     0  0
 14 17  1  0     0  0
 15 18  2  0     0  0
 15 19  1  0     0  0
 15 20  1  0     0  0
 16 18  1  0     0  0
 17 19  2  0     0  0
 21 24  1  0     0  0
 22 30  1  0     0  0
 23 31  1  0     0  0
 24 25  1  0     0  0
 24 26  1  0     0  0
 25 27  1  0     0  0
 26 28  1  0     0  0
 27 29  1  0     0  0
 28 29  1  0     0  0
M  END
> <Compound >
6

> <standard_type>
pIC50

> <# Confs.>
25

> <canonical_smiles>
NC1=C(N=O)C(OCC2CCCCC2)=NC(NC3=CC=C(C(N(CC)CC)=O)C=C3)=N1

> <standard_relation>
=

> <predicted_activity_value>
6.604673606930649

> <actual_activity_value>
6.698970004336019

> <Publication ID>
nan

> <standard_units>
nM

> hash
11749655514688934920

$$$$
6
XXILIB    08252103513D 0   0.00000     0.00000

 26 28  0     1  0            999 V2000
   -3.8480    1.3912    7.1546 S   0  0  0  0  0  2           0  0  0
   -0.5282    0.5741   -3.3495 O   0  0  0  0  0  2           0  0  0
    1.3872    0.0000    0.0000 O   0  0  0  0  0  2           0  0  0
   -0.6613   -0.0000    1.1796 N   0  0  0  0  0  3           0  0  0
   -2.7104    0.0132   -0.0234 N   0  0  0  0  0  3           0  0  0
    0.0579    0.0086   -2.4187 N   0  0  0  0  0  3           0  0  0
   -2.7474   -0.0055    2.3276 N   0  0  0  0  0  3           0  0  0
   -2.7860    0.0173   -2.3759 N   0  0  0  0  0  3           0  0  0
   -2.7520    0.6174    5.9913 C   0  0  0  0  0  4           0  0  0
    0.0000    0.0000    0.0000 C   0  0  0  0  0  4           0  0  0
   -2.0113    0.0020    1.1355 C   0  0  0  0  0  4           0  0  0
   -2.0357    0.0341   -1.2005 C   0  0  0  0  0  4           0  0  0
   -0.6421    0.0020   -1.2343 C   0  0  0  0  0  4           0  0  0
   -2.3253   -0.0155    3.6594 C   0  0  0  0  0  4           0  0  0
   -3.1308    0.5925    4.6394 C   0  0  0  0  0  4           0  0  0
   -1.5528    0.0064    6.3682 C   0  0  0  0  0  4           0  0  0
   -1.1249   -0.6127    4.0658 C   0  0  0  0  0  4           0  0  0
   -0.7437   -0.6020    5.4087 C   0  0  0  0  0  4           0  0  0
   -2.8064    2.7115    7.8372 C   0  0  0  0  0  4           0  0  0
    1.9744    0.0000    1.3013 C   0  0  0  0  0  4           0  0  0
    3.4972    0.0000    1.1785 C   0  0  2  0  0  4           0  0  0
    4.1460   -0.0000    2.5696 C   0  0  0  0  0  4           0  0  0
    3.9909    1.1947    0.3444 C   0  0  0  0  0  4           0  0  0
    5.6693    0.0504    2.4863 C   0  0  0  0  0  4           0  0  0
    5.5156    1.2455    0.2710 C   0  0  0  0  0  4           0  0  0
    6.1486    1.2378    1.6584 C   0  0  0  0  0  4           0  0  0
  1  9  1  0     0  0
  1 19  1  0     0  0
  2  6  2  0     0  0
  3 10  1  0     0  0
  3 20  1  0     0  0
  4 10  2  0     0  0
  4 11  1  0     0  0
  5 11  2  0     0  0
  5 12  1  0     0  0
  6 13  1  0     0  0
  7 11  1  0     0  0
  7 14  1  0     0  0
  8 12  1  0     0  0
  9 15  2  0     0  0
  9 16  1  0     0  0
 10 13  1  0     0  0
 12 13  2  0     0  0
 14 15  1  0     0  0
 14 17  2  0     0  0
 16 18  2  0     0  0
 17 18  1  0     0  0
 20 21  1  0     0  0
 21 22  1  0     0  0
 21 23  1  0     0  0
 22 24  1  0     0  0
 23 25  1  0     0  0
 24 26  1  0     0  0
 25 26  1  0     0  0
M  END
> <Compound >
7

> <standard_type>
pIC50

> <# Confs.>
25

> <canonical_smiles>
NC1=C(N=O)C(OCC2CCCCC2)=NC(NC3=CC=CC(SC)=C3)=N1

> <standard_relation>
=

> <predicted_activity_value>
5.9899545873639015

> <actual_activity_value>
6.3979400086720375

> <Publication ID>
nan

> <standard_units>
nM

> hash
10733327821956238231

$$$$
6
XXILIB    08252103513D 0   0.00000     0.00000

 26 28  0     1  0            999 V2000
   -3.8371   -1.4938    7.1297 S   0  0  0  0  0  2           0  0  0
   -0.5282    0.5741   -3.3495 O   0  0  0  0  0  2           0  0  0
    1.3872    0.0000    0.0000 O   0  0  0  0  0  2           0  0  0
   -0.6613   -0.0000    1.1796 N   0  0  0  0  0  3           0  0  0
   -2.7104    0.0132   -0.0234 N   0  0  0  0  0  3           0  0  0
    0.0579    0.0086   -2.4187 N   0  0  0  0  0  3           0  0  0
   -2.7474   -0.0055    2.3276 N   0  0  0  0  0  3           0  0  0
   -2.7860    0.0173   -2.3759 N   0  0  0  0  0  3           0  0  0
   -2.7598   -0.6688    5.9842 C   0  0  0  0  0  4           0  0  0
    0.0000    0.0000    0.0000 C   0  0  0  0  0  4           0  0  0
   -2.0113    0.0020    1.1355 C   0  0  0  0  0  4           0  0  0
   -2.0357    0.0341   -1.2005 C   0  0  0  0  0  4           0  0  0
   -0.6421    0.0020   -1.2343 C   0  0  0  0  0  4           0  0  0
   -2.3253   -0.0155    3.6594 C   0  0  0  0  0  4           0  0  0
   -3.1323   -0.6352    4.6307 C   0  0  0  0  0  4           0  0  0
   -1.5484   -0.0855    6.3662 C   0  0  0  0  0  4           0  0  0
   -1.1206    0.5679    4.0732 C   0  0  0  0  0  4           0  0  0
   -0.7363    0.5317    5.4148 C   0  0  0  0  0  4           0  0  0
   -2.7584   -2.7913    7.7982 C   0  0  0  0  0  4           0  0  0
    1.9744    0.0000    1.3013 C   0  0  0  0  0  4           0  0  0
    3.4972    0.0000    1.1785 C   0  0  2  0  0  4           0  0  0
    4.1460   -0.0000    2.5696 C   0  0  0  0  0  4           0  0  0
    3.9909    1.1947    0.3444 C   0  0  0  0  0  4           0  0  0
    5.6693    0.0504    2.4863 C   0  0  0  0  0  4           0  0  0
    5.5156    1.2455    0.2710 C   0  0  0  0  0  4           0  0  0
    6.1486    1.2378    1.6584 C   0  0  0  0  0  4           0  0  0
  1  9  1  0     0  0
  1 19  1  0     0  0
  2  6  2  0     0  0
  3 10  1  0     0  0
  3 20  1  0     0  0
  4 10  2  0     0  0
  4 11  1  0     0  0
  5 11  2  0     0  0
  5 12  1  0     0  0
  6 13  1  0     0  0
  7 11  1  0     0  0
  7 14  1  0     0  0
  8 12  1  0     0  0
  9 15  2  0     0  0
  9 16  1  0     0  0
 10 13  1  0     0  0
 12 13  2  0     0  0
 14 15  1  0     0  0
 14 17  2  0     0  0
 16 18  2  0     0  0
 17 18  1  0     0  0
 20 21  1  0     0  0
 21 22  1  0     0  0
 21 23  1  0     0  0
 22 24  1  0     0  0
 23 25  1  0     0  0
 24 26  1  0     0  0
 25 26  1  0     0  0
M  END
> <Compound >
7

> <standard_type>
pIC50

> <# Confs.>
25

> <canonical_smiles>
NC1=C(N=O)C(OCC2CCCCC2)=NC(NC3=CC=CC(SC)=C3)=N1

> <standard_relation>
=

> <predicted_activity_value>
5.9899545873639015

> <actual_activity_value>
6.3979400086720375

> <Publication ID>
nan

> <standard_units>
nM

> hash
10733327821956238231

$$$$
6
XXILIB    08252103513D 0   0.00000     0.00000

 26 28  0     1  0            999 V2000
   -3.8480    1.3912    7.1546 S   0  0  0  0  0  2           0  0  0
   -0.5282    0.5741   -3.3495 O   0  0  0  0  0  2           0  0  0
    1.3872    0.0000    0.0000 O   0  0  0  0  0  2           0  0  0
   -0.6613   -0.0000    1.1796 N   0  0  0  0  0  3           0  0  0
   -2.7104    0.0132   -0.0234 N   0  0  0  0  0  3           0  0  0
    0.0579    0.0086   -2.4187 N   0  0  0  0  0  3           0  0  0
   -2.7474   -0.0055    2.3276 N   0  0  0  0  0  3           0  0  0
   -2.7860    0.0173   -2.3759 N   0  0  0  0  0  3           0  0  0
   -2.7520    0.6174    5.9913 C   0  0  0  0  0  4           0  0  0
    0.0000    0.0000    0.0000 C   0  0  0  0  0  4           0  0  0
   -2.0113    0.0020    1.1355 C   0  0  0  0  0  4           0  0  0
   -2.0357    0.0341   -1.2005 C   0  0  0  0  0  4           0  0  0
   -0.6421    0.0020   -1.2343 C   0  0  0  0  0  4           0  0  0
   -2.3253   -0.0155    3.6594 C   0  0  0  0  0  4           0  0  0
   -3.1308    0.5925    4.6394 C   0  0  0  0  0  4           0  0  0
   -1.5528    0.0064    6.3682 C   0  0  0  0  0  4           0  0  0
   -1.1249   -0.6127    4.0658 C   0  0  0  0  0  4           0  0  0
   -0.7437   -0.6020    5.4087 C   0  0  0  0  0  4           0  0  0
   -2.8064    2.7115    7.8372 C   0  0  0  0  0  4           0  0  0
    1.9744    0.0000    1.3013 C   0  0  0  0  0  4           0  0  0
    3.4972    0.0000    1.1785 C   0  0  2  0  0  4           0  0  0
    3.9725   -1.2460    0.4184 C   0  0  0  0  0  4           0  0  0
    4.1696    0.0883    2.5594 C   0  0  0  0  0  4           0  0  0
    5.4945   -1.3054    0.3197 C   0  0  0  0  0  4           0  0  0
    5.6918    0.0201    2.4559 C   0  0  0  0  0  4           0  0  0
    6.1514   -1.2178    1.6930 C   0  0  0  0  0  4           0  0  0
  1  9  1  0     0  0
  1 19  1  0     0  0
  2  6  2  0     0  0
  3 10  1  0     0  0
  3 20  1  0     0  0
  4 10  2  0     0  0
  4 11  1  0     0  0
  5 11  2  0     0  0
  5 12  1  0     0  0
  6 13  1  0     0  0
  7 11  1  0     0  0
  7 14  1  0     0  0
  8 12  1  0     0  0
  9 15  2  0     0  0
  9 16  1  0     0  0
 10 13  1  0     0  0
 12 13  2  0     0  0
 14 15  1  0     0  0
 14 17  2  0     0  0
 16 18  2  0     0  0
 17 18  1  0     0  0
 20 21  1  0     0  0
 21 22  1  0     0  0
 21 23  1  0     0  0
 22 24  1  0     0  0
 23 25  1  0     0  0
 24 26  1  0     0  0
 25 26  1  0     0  0
M  END
> <Compound >
7

> <standard_type>
pIC50

> <# Confs.>
25

> <canonical_smiles>
NC1=C(N=O)C(OCC2CCCCC2)=NC(NC3=CC=CC(SC)=C3)=N1

> <standard_relation>
=

> <predicted_activity_value>
5.9899545873639015

> <actual_activity_value>
6.3979400086720375

> <Publication ID>
nan

> <standard_units>
nM

> hash
10733327821956238231

$$$$
6
XXILIB    08252103513D 0   0.00000     0.00000

 26 28  0     1  0            999 V2000
   -3.8371   -1.4938    7.1297 S   0  0  0  0  0  2           0  0  0
   -0.5282    0.5741   -3.3495 O   0  0  0  0  0  2           0  0  0
    1.3872    0.0000    0.0000 O   0  0  0  0  0  2           0  0  0
   -0.6613   -0.0000    1.1796 N   0  0  0  0  0  3           0  0  0
   -2.7104    0.0132   -0.0234 N   0  0  0  0  0  3           0  0  0
    0.0579    0.0086   -2.4187 N   0  0  0  0  0  3           0  0  0
   -2.7474   -0.0055    2.3276 N   0  0  0  0  0  3           0  0  0
   -2.7860    0.0173   -2.3759 N   0  0  0  0  0  3           0  0  0
   -2.7598   -0.6688    5.9842 C   0  0  0  0  0  4           0  0  0
    0.0000    0.0000    0.0000 C   0  0  0  0  0  4           0  0  0
   -2.0113    0.0020    1.1355 C   0  0  0  0  0  4           0  0  0
   -2.0357    0.0341   -1.2005 C   0  0  0  0  0  4           0  0  0
   -0.6421    0.0020   -1.2343 C   0  0  0  0  0  4           0  0  0
   -2.3253   -0.0155    3.6594 C   0  0  0  0  0  4           0  0  0
   -3.1323   -0.6352    4.6307 C   0  0  0  0  0  4           0  0  0
   -1.5484   -0.0855    6.3662 C   0  0  0  0  0  4           0  0  0
   -1.1206    0.5679    4.0732 C   0  0  0  0  0  4           0  0  0
   -0.7363    0.5317    5.4148 C   0  0  0  0  0  4           0  0  0
   -2.7584   -2.7913    7.7982 C   0  0  0  0  0  4           0  0  0
    1.9744    0.0000    1.3013 C   0  0  0  0  0  4           0  0  0
    3.4972    0.0000    1.1785 C   0  0  2  0  0  4           0  0  0
    3.9725   -1.2460    0.4184 C   0  0  0  0  0  4           0  0  0
    4.1696    0.0883    2.5594 C   0  0  0  0  0  4           0  0  0
    5.4945   -1.3054    0.3197 C   0  0  0  0  0  4           0  0  0
    5.6918    0.0201    2.4559 C   0  0  0  0  0  4           0  0  0
    6.1514   -1.2178    1.6930 C   0  0  0  0  0  4           0  0  0
  1  9  1  0     0  0
  1 19  1  0     0  0
  2  6  2  0     0  0
  3 10  1  0     0  0
  3 20  1  0     0  0
  4 10  2  0     0  0
  4 11  1  0     0  0
  5 11  2  0     0  0
  5 12  1  0     0  0
  6 13  1  0     0  0
  7 11  1  0     0  0
  7 14  1  0     0  0
  8 12  1  0     0  0
  9 15  2  0     0  0
  9 16  1  0     0  0
 10 13  1  0     0  0
 12 13  2  0     0  0
 14 15  1  0     0  0
 14 17  2  0     0  0
 16 18  2  0     0  0
 17 18  1  0     0  0
 20 21  1  0     0  0
 21 22  1  0     0  0
 21 23  1  0     0  0
 22 24  1  0     0  0
 23 25  1  0     0  0
 24 26  1  0     0  0
 25 26  1  0     0  0
M  END
> <Compound >
7

> <standard_type>
pIC50

> <# Confs.>
25

> <canonical_smiles>
NC1=C(N=O)C(OCC2CCCCC2)=NC(NC3=CC=CC(SC)=C3)=N1

> <standard_relation>
=

> <predicted_activity_value>
5.9899545873639015

> <actual_activity_value>
6.3979400086720375

> <Publication ID>
nan

> <standard_units>
nM

> hash
10733327821956238231

$$$$
6
XXILIB    08252103513D 0   0.00000     0.00000

 26 28  0     1  0            999 V2000
   -3.8371   -1.4938    7.1297 S   0  0  0  0  0  2           0  0  0
   -0.5282    0.5741   -3.3495 O   0  0  0  0  0  2           0  0  0
    1.3872    0.0000    0.0000 O   0  0  0  0  0  2           0  0  0
   -0.6613   -0.0000    1.1796 N   0  0  0  0  0  3           0  0  0
   -2.7104    0.0132   -0.0234 N   0  0  0  0  0  3           0  0  0
    0.0579    0.0086   -2.4187 N   0  0  0  0  0  3           0  0  0
   -2.7474   -0.0055    2.3276 N   0  0  0  0  0  3           0  0  0
   -2.7860    0.0173   -2.3759 N   0  0  0  0  0  3           0  0  0
   -2.7598   -0.6688    5.9842 C   0  0  0  0  0  4           0  0  0
    0.0000    0.0000    0.0000 C   0  0  0  0  0  4           0  0  0
   -2.0113    0.0020    1.1355 C   0  0  0  0  0  4           0  0  0
   -2.0357    0.0341   -1.2005 C   0  0  0  0  0  4           0  0  0
   -0.6421    0.0020   -1.2343 C   0  0  0  0  0  4           0  0  0
   -2.3253   -0.0155    3.6594 C   0  0  0  0  0  4           0  0  0
   -3.1323   -0.6352    4.6307 C   0  0  0  0  0  4           0  0  0
   -1.5484   -0.0855    6.3662 C   0  0  0  0  0  4           0  0  0
   -1.1206    0.5679    4.0732 C   0  0  0  0  0  4           0  0  0
   -0.7363    0.5317    5.4148 C   0  0  0  0  0  4           0  0  0
   -4.2660   -0.1557    8.2785 C   0  0  0  0  0  4           0  0  0
    1.9744    0.0000    1.3013 C   0  0  0  0  0  4           0  0  0
    3.4972    0.0000    1.1785 C   0  0  2  0  0  4           0  0  0
    4.1460   -0.0000    2.5696 C   0  0  0  0  0  4           0  0  0
    3.9909    1.1947    0.3444 C   0  0  0  0  0  4           0  0  0
    5.6693    0.0504    2.4863 C   0  0  0  0  0  4           0  0  0
    5.5156    1.2455    0.2710 C   0  0  0  0  0  4           0  0  0
    6.1486    1.2378    1.6584 C   0  0  0  0  0  4           0  0  0
  1  9  1  0     0  0
  1 19  1  0     0  0
  2  6  2  0     0  0
  3 10  1  0     0  0
  3 20  1  0     0  0
  4 10  2  0     0  0
  4 11  1  0     0  0
  5 11  2  0     0  0
  5 12  1  0     0  0
  6 13  1  0     0  0
  7 11  1  0     0  0
  7 14  1  0     0  0
  8 12  1  0     0  0
  9 15  2  0     0  0
  9 16  1  0     0  0
 10 13  1  0     0  0
 12 13  2  0     0  0
 14 15  1  0     0  0
 14 17  2  0     0  0
 16 18  2  0     0  0
 17 18  1  0     0  0
 20 21  1  0     0  0
 21 22  1  0     0  0
 21 23  1  0     0  0
 22 24  1  0     0  0
 23 25  1  0     0  0
 24 26  1  0     0  0
 25 26  1  0     0  0
M  END
> <Compound >
7

> <standard_type>
pIC50

> <# Confs.>
25

> <canonical_smiles>
NC1=C(N=O)C(OCC2CCCCC2)=NC(NC3=CC=CC(SC)=C3)=N1

> <standard_relation>
=

> <predicted_activity_value>
5.9899545873639015

> <actual_activity_value>
6.3979400086720375

> <Publication ID>
nan

> <standard_units>
nM

> hash
10733327821956238231

$$$$
6
XXILIB    08252103513D 0   0.00000     0.00000

 26 28  0     1  0            999 V2000
   -3.8371   -1.4938    7.1297 S   0  0  0  0  0  2           0  0  0
   -0.5282    0.5741   -3.3495 O   0  0  0  0  0  2           0  0  0
    1.3872    0.0000    0.0000 O   0  0  0  0  0  2           0  0  0
   -0.6613   -0.0000    1.1796 N   0  0  0  0  0  3           0  0  0
   -2.7104    0.0132   -0.0234 N   0  0  0  0  0  3           0  0  0
    0.0579    0.0086   -2.4187 N   0  0  0  0  0  3           0  0  0
   -2.7474   -0.0055    2.3276 N   0  0  0  0  0  3           0  0  0
   -2.7860    0.0173   -2.3759 N   0  0  0  0  0  3           0  0  0
   -2.7598   -0.6688    5.9842 C   0  0  0  0  0  4           0  0  0
    0.0000    0.0000    0.0000 C   0  0  0  0  0  4           0  0  0
   -2.0113    0.0020    1.1355 C   0  0  0  0  0  4           0  0  0
   -2.0357    0.0341   -1.2005 C   0  0  0  0  0  4           0  0  0
   -0.6421    0.0020   -1.2343 C   0  0  0  0  0  4           0  0  0
   -2.3253   -0.0155    3.6594 C   0  0  0  0  0  4           0  0  0
   -3.1323   -0.6352    4.6307 C   0  0  0  0  0  4           0  0  0
   -1.5484   -0.0855    6.3662 C   0  0  0  0  0  4           0  0  0
   -1.1206    0.5679    4.0732 C   0  0  0  0  0  4           0  0  0
   -0.7363    0.5317    5.4148 C   0  0  0  0  0  4           0  0  0
   -4.2660   -0.1557    8.2785 C   0  0  0  0  0  4           0  0  0
    1.9744    0.0000    1.3013 C   0  0  0  0  0  4           0  0  0
    3.4972    0.0000    1.1785 C   0  0  2  0  0  4           0  0  0
    3.9725   -1.2460    0.4184 C   0  0  0  0  0  4           0  0  0
    4.1696    0.0883    2.5594 C   0  0  0  0  0  4           0  0  0
    5.4945   -1.3054    0.3197 C   0  0  0  0  0  4           0  0  0
    5.6918    0.0201    2.4559 C   0  0  0  0  0  4           0  0  0
    6.1514   -1.2178    1.6930 C   0  0  0  0  0  4           0  0  0
  1  9  1  0     0  0
  1 19  1  0     0  0
  2  6  2  0     0  0
  3 10  1  0     0  0
  3 20  1  0     0  0
  4 10  2  0     0  0
  4 11  1  0     0  0
  5 11  2  0     0  0
  5 12  1  0     0  0
  6 13  1  0     0  0
  7 11  1  0     0  0
  7 14  1  0     0  0
  8 12  1  0     0  0
  9 15  2  0     0  0
  9 16  1  0     0  0
 10 13  1  0     0  0
 12 13  2  0     0  0
 14 15  1  0     0  0
 14 17  2  0     0  0
 16 18  2  0     0  0
 17 18  1  0     0  0
 20 21  1  0     0  0
 21 22  1  0     0  0
 21 23  1  0     0  0
 22 24  1  0     0  0
 23 25  1  0     0  0
 24 26  1  0     0  0
 25 26  1  0     0  0
M  END
> <Compound >
7

> <standard_type>
pIC50

> <# Confs.>
25

> <canonical_smiles>
NC1=C(N=O)C(OCC2CCCCC2)=NC(NC3=CC=CC(SC)=C3)=N1

> <standard_relation>
=

> <predicted_activity_value>
5.9899545873639015

> <actual_activity_value>
6.3979400086720375

> <Publication ID>
nan

> <standard_units>
nM

> hash
10733327821956238231

$$$$
6
XXILIB    08252103513D 0   0.00000     0.00000

 26 28  0     1  0            999 V2000
   -3.8480    1.3912    7.1546 S   0  0  0  0  0  2           0  0  0
   -0.5282    0.5741   -3.3495 O   0  0  0  0  0  2           0  0  0
    1.3872    0.0000    0.0000 O   0  0  0  0  0  2           0  0  0
   -0.6613   -0.0000    1.1796 N   0  0  0  0  0  3           0  0  0
   -2.7104    0.0132   -0.0234 N   0  0  0  0  0  3           0  0  0
    0.0579    0.0086   -2.4187 N   0  0  0  0  0  3           0  0  0
   -2.7474   -0.0055    2.3276 N   0  0  0  0  0  3           0  0  0
   -2.7860    0.0173   -2.3759 N   0  0  0  0  0  3           0  0  0
   -2.7520    0.6174    5.9913 C   0  0  0  0  0  4           0  0  0
    0.0000    0.0000    0.0000 C   0  0  0  0  0  4           0  0  0
   -2.0113    0.0020    1.1355 C   0  0  0  0  0  4           0  0  0
   -2.0357    0.0341   -1.2005 C   0  0  0  0  0  4           0  0  0
   -0.6421    0.0020   -1.2343 C   0  0  0  0  0  4           0  0  0
   -2.3253   -0.0155    3.6594 C   0  0  0  0  0  4           0  0  0
   -3.1308    0.5925    4.6394 C   0  0  0  0  0  4           0  0  0
   -1.5528    0.0064    6.3682 C   0  0  0  0  0  4           0  0  0
   -1.1249   -0.6127    4.0658 C   0  0  0  0  0  4           0  0  0
   -0.7437   -0.6020    5.4087 C   0  0  0  0  0  4           0  0  0
   -4.2288    0.0235    8.2852 C   0  0  0  0  0  4           0  0  0
    1.9744    0.0000    1.3013 C   0  0  0  0  0  4           0  0  0
    3.4972    0.0000    1.1785 C   0  0  2  0  0  4           0  0  0
    4.1460   -0.0000    2.5696 C   0  0  0  0  0  4           0  0  0
    3.9909    1.1947    0.3444 C   0  0  0  0  0  4           0  0  0
    5.6693    0.0504    2.4863 C   0  0  0  0  0  4           0  0  0
    5.5156    1.2455    0.2710 C   0  0  0  0  0  4           0  0  0
    6.1486    1.2378    1.6584 C   0  0  0  0  0  4           0  0  0
  1  9  1  0     0  0
  1 19  1  0     0  0
  2  6  2  0     0  0
  3 10  1  0     0  0
  3 20  1  0     0  0
  4 10  2  0     0  0
  4 11  1  0     0  0
  5 11  2  0     0  0
  5 12  1  0     0  0
  6 13  1  0     0  0
  7 11  1  0     0  0
  7 14  1  0     0  0
  8 12  1  0     0  0
  9 15  2  0     0  0
  9 16  1  0     0  0
 10 13  1  0     0  0
 12 13  2  0     0  0
 14 15  1  0     0  0
 14 17  2  0     0  0
 16 18  2  0     0  0
 17 18  1  0     0  0
 20 21  1  0     0  0
 21 22  1  0     0  0
 21 23  1  0     0  0
 22 24  1  0     0  0
 23 25  1  0     0  0
 24 26  1  0     0  0
 25 26  1  0     0  0
M  END
> <Compound >
7

> <standard_type>
pIC50

> <# Confs.>
25

> <canonical_smiles>
NC1=C(N=O)C(OCC2CCCCC2)=NC(NC3=CC=CC(SC)=C3)=N1

> <standard_relation>
=

> <predicted_activity_value>
5.9899545873639015

> <actual_activity_value>
6.3979400086720375

> <Publication ID>
nan

> <standard_units>
nM

> hash
10733327821956238231

$$$$
6
XXILIB    08252103513D 0   0.00000     0.00000

 26 28  0     1  0            999 V2000
   -3.8480    1.3912    7.1546 S   0  0  0  0  0  2           0  0  0
   -0.5282    0.5741   -3.3495 O   0  0  0  0  0  2           0  0  0
    1.3872    0.0000    0.0000 O   0  0  0  0  0  2           0  0  0
   -0.6613   -0.0000    1.1796 N   0  0  0  0  0  3           0  0  0
   -2.7104    0.0132   -0.0234 N   0  0  0  0  0  3           0  0  0
    0.0579    0.0086   -2.4187 N   0  0  0  0  0  3           0  0  0
   -2.7474   -0.0055    2.3276 N   0  0  0  0  0  3           0  0  0
   -2.7860    0.0173   -2.3759 N   0  0  0  0  0  3           0  0  0
   -2.7520    0.6174    5.9913 C   0  0  0  0  0  4           0  0  0
    0.0000    0.0000    0.0000 C   0  0  0  0  0  4           0  0  0
   -2.0113    0.0020    1.1355 C   0  0  0  0  0  4           0  0  0
   -2.0357    0.0341   -1.2005 C   0  0  0  0  0  4           0  0  0
   -0.6421    0.0020   -1.2343 C   0  0  0  0  0  4           0  0  0
   -2.3253   -0.0155    3.6594 C   0  0  0  0  0  4           0  0  0
   -3.1308    0.5925    4.6394 C   0  0  0  0  0  4           0  0  0
   -1.5528    0.0064    6.3682 C   0  0  0  0  0  4           0  0  0
   -1.1249   -0.6127    4.0658 C   0  0  0  0  0  4           0  0  0
   -0.7437   -0.6020    5.4087 C   0  0  0  0  0  4           0  0  0
   -4.2288    0.0235    8.2852 C   0  0  0  0  0  4           0  0  0
    1.9744    0.0000    1.3013 C   0  0  0  0  0  4           0  0  0
    3.4972    0.0000    1.1785 C   0  0  2  0  0  4           0  0  0
    3.9725   -1.2460    0.4184 C   0  0  0  0  0  4           0  0  0
    4.1696    0.0883    2.5594 C   0  0  0  0  0  4           0  0  0
    5.4945   -1.3054    0.3197 C   0  0  0  0  0  4           0  0  0
    5.6918    0.0201    2.4559 C   0  0  0  0  0  4           0  0  0
    6.1514   -1.2178    1.6930 C   0  0  0  0  0  4           0  0  0
  1  9  1  0     0  0
  1 19  1  0     0  0
  2  6  2  0     0  0
  3 10  1  0     0  0
  3 20  1  0     0  0
  4 10  2  0     0  0
  4 11  1  0     0  0
  5 11  2  0     0  0
  5 12  1  0     0  0
  6 13  1  0     0  0
  7 11  1  0     0  0
  7 14  1  0     0  0
  8 12  1  0     0  0
  9 15  2  0     0  0
  9 16  1  0     0  0
 10 13  1  0     0  0
 12 13  2  0     0  0
 14 15  1  0     0  0
 14 17  2  0     0  0
 16 18  2  0     0  0
 17 18  1  0     0  0
 20 21  1  0     0  0
 21 22  1  0     0  0
 21 23  1  0     0  0
 22 24  1  0     0  0
 23 25  1  0     0  0
 24 26  1  0     0  0
 25 26  1  0     0  0
M  END
> <Compound >
7

> <standard_type>
pIC50

> <# Confs.>
25

> <canonical_smiles>
NC1=C(N=O)C(OCC2CCCCC2)=NC(NC3=CC=CC(SC)=C3)=N1

> <standard_relation>
=

> <predicted_activity_value>
5.9899545873639015

> <actual_activity_value>
6.3979400086720375

> <Publication ID>
nan

> <standard_units>
nM

> hash
10733327821956238231

$$$$
6
XXILIB    08252103513D 0   0.00000     0.00000

 26 28  0     1  0            999 V2000
   -3.8480    1.3912    7.1546 S   0  0  0  0  0  2           0  0  0
   -0.5282    0.5741   -3.3495 O   0  0  0  0  0  2           0  0  0
    1.3872    0.0000    0.0000 O   0  0  0  0  0  2           0  0  0
   -0.6613   -0.0000    1.1796 N   0  0  0  0  0  3           0  0  0
   -2.7104    0.0132   -0.0234 N   0  0  0  0  0  3           0  0  0
    0.0579    0.0086   -2.4187 N   0  0  0  0  0  3           0  0  0
   -2.7474   -0.0055    2.3276 N   0  0  0  0  0  3           0  0  0
   -2.7860    0.0173   -2.3759 N   0  0  0  0  0  3           0  0  0
   -2.7520    0.6174    5.9913 C   0  0  0  0  0  4           0  0  0
    0.0000    0.0000    0.0000 C   0  0  0  0  0  4           0  0  0
   -2.0113    0.0020    1.1355 C   0  0  0  0  0  4           0  0  0
   -2.0357    0.0341   -1.2005 C   0  0  0  0  0  4           0  0  0
   -0.6421    0.0020   -1.2343 C   0  0  0  0  0  4           0  0  0
   -2.3253   -0.0155    3.6594 C   0  0  0  0  0  4           0  0  0
   -3.1308    0.5925    4.6394 C   0  0  0  0  0  4           0  0  0
   -1.5528    0.0064    6.3682 C   0  0  0  0  0  4           0  0  0
   -1.1249   -0.6127    4.0658 C   0  0  0  0  0  4           0  0  0
   -0.7437   -0.6020    5.4087 C   0  0  0  0  0  4           0  0  0
   -2.8064    2.7115    7.8372 C   0  0  0  0  0  4           0  0  0
    1.9744    0.0000    1.3013 C   0  0  0  0  0  4           0  0  0
    3.4972    0.0000    1.1785 C   0  0  2  0  0  4           0  0  0
    3.9725    1.2460    0.4184 C   0  0  0  0  0  4           0  0  0
    4.0032   -1.2830    0.4968 C   0  0  0  0  0  4           0  0  0
    5.4875    1.2550    0.2326 C   0  0  0  0  0  4           0  0  0
    5.5183   -1.2655    0.3057 C   0  0  0  0  0  4           0  0  0
    5.9790   -0.0200   -0.4440 C   0  0  0  0  0  4           0  0  0
  1  9  1  0     0  0
  1 19  1  0     0  0
  2  6  2  0     0  0
  3 10  1  0     0  0
  3 20  1  0     0  0
  4 10  2  0     0  0
  4 11  1  0     0  0
  5 11  2  0     0  0
  5 12  1  0     0  0
  6 13  1  0     0  0
  7 11  1  0     0  0
  7 14  1  0     0  0
  8 12  1  0     0  0
  9 15  2  0     0  0
  9 16  1  0     0  0
 10 13  1  0     0  0
 12 13  2  0     0  0
 14 15  1  0     0  0
 14 17  2  0     0  0
 16 18  2  0     0  0
 17 18  1  0     0  0
 20 21  1  0     0  0
 21 22  1  0     0  0
 21 23  1  0     0  0
 22 24  1  0     0  0
 23 25  1  0     0  0
 24 26  1  0     0  0
 25 26  1  0     0  0
M  END
> <Compound >
7

> <standard_type>
pIC50

> <# Confs.>
25

> <canonical_smiles>
NC1=C(N=O)C(OCC2CCCCC2)=NC(NC3=CC=CC(SC)=C3)=N1

> <standard_relation>
=

> <predicted_activity_value>
5.9899545873639015

> <actual_activity_value>
6.3979400086720375

> <Publication ID>
nan

> <standard_units>
nM

> hash
10733327821956238231

$$$$
6
XXILIB    08252103513D 0   0.00000     0.00000

 26 28  0     1  0            999 V2000
   -3.8371   -1.4938    7.1297 S   0  0  0  0  0  2           0  0  0
   -0.5282    0.5741   -3.3495 O   0  0  0  0  0  2           0  0  0
    1.3872    0.0000    0.0000 O   0  0  0  0  0  2           0  0  0
   -0.6613   -0.0000    1.1796 N   0  0  0  0  0  3           0  0  0
   -2.7104    0.0132   -0.0234 N   0  0  0  0  0  3           0  0  0
    0.0579    0.0086   -2.4187 N   0  0  0  0  0  3           0  0  0
   -2.7474   -0.0055    2.3276 N   0  0  0  0  0  3           0  0  0
   -2.7860    0.0173   -2.3759 N   0  0  0  0  0  3           0  0  0
   -2.7598   -0.6688    5.9842 C   0  0  0  0  0  4           0  0  0
    0.0000    0.0000    0.0000 C   0  0  0  0  0  4           0  0  0
   -2.0113    0.0020    1.1355 C   0  0  0  0  0  4           0  0  0
   -2.0357    0.0341   -1.2005 C   0  0  0  0  0  4           0  0  0
   -0.6421    0.0020   -1.2343 C   0  0  0  0  0  4           0  0  0
   -2.3253   -0.0155    3.6594 C   0  0  0  0  0  4           0  0  0
   -3.1323   -0.6352    4.6307 C   0  0  0  0  0  4           0  0  0
   -1.5484   -0.0855    6.3662 C   0  0  0  0  0  4           0  0  0
   -1.1206    0.5679    4.0732 C   0  0  0  0  0  4           0  0  0
   -0.7363    0.5317    5.4148 C   0  0  0  0  0  4           0  0  0
   -2.7584   -2.7913    7.7982 C   0  0  0  0  0  4           0  0  0
    1.9744    0.0000    1.3013 C   0  0  0  0  0  4           0  0  0
    3.4972    0.0000    1.1785 C   0  0  2  0  0  4           0  0  0
    3.9725    1.2460    0.4184 C   0  0  0  0  0  4           0  0  0
    4.0032   -1.2830    0.4968 C   0  0  0  0  0  4           0  0  0
    5.4875    1.2550    0.2326 C   0  0  0  0  0  4           0  0  0
    5.5183   -1.2655    0.3057 C   0  0  0  0  0  4           0  0  0
    5.9790   -0.0200   -0.4440 C   0  0  0  0  0  4           0  0  0
  1  9  1  0     0  0
  1 19  1  0     0  0
  2  6  2  0     0  0
  3 10  1  0     0  0
  3 20  1  0     0  0
  4 10  2  0     0  0
  4 11  1  0     0  0
  5 11  2  0     0  0
  5 12  1  0     0  0
  6 13  1  0     0  0
  7 11  1  0     0  0
  7 14  1  0     0  0
  8 12  1  0     0  0
  9 15  2  0     0  0
  9 16  1  0     0  0
 10 13  1  0     0  0
 12 13  2  0     0  0
 14 15  1  0     0  0
 14 17  2  0     0  0
 16 18  2  0     0  0
 17 18  1  0     0  0
 20 21  1  0     0  0
 21 22  1  0     0  0
 21 23  1  0     0  0
 22 24  1  0     0  0
 23 25  1  0     0  0
 24 26  1  0     0  0
 25 26  1  0     0  0
M  END
> <Compound >
7

> <standard_type>
pIC50

> <# Confs.>
25

> <canonical_smiles>
NC1=C(N=O)C(OCC2CCCCC2)=NC(NC3=CC=CC(SC)=C3)=N1

> <standard_relation>
=

> <predicted_activity_value>
5.9899545873639015

> <actual_activity_value>
6.3979400086720375

> <Publication ID>
nan

> <standard_units>
nM

> hash
10733327821956238231

$$$$
6
XXILIB    08252103513D 0   0.00000     0.00000

 26 28  0     1  0            999 V2000
   -3.8371   -1.4938    7.1297 S   0  0  0  0  0  2           0  0  0
   -0.5282    0.5741   -3.3495 O   0  0  0  0  0  2           0  0  0
    1.3872    0.0000    0.0000 O   0  0  0  0  0  2           0  0  0
   -0.6613   -0.0000    1.1796 N   0  0  0  0  0  3           0  0  0
   -2.7104    0.0132   -0.0234 N   0  0  0  0  0  3           0  0  0
    0.0579    0.0086   -2.4187 N   0  0  0  0  0  3           0  0  0
   -2.7474   -0.0055    2.3276 N   0  0  0  0  0  3           0  0  0
   -2.7860    0.0173   -2.3759 N   0  0  0  0  0  3           0  0  0
   -2.7598   -0.6688    5.9842 C   0  0  0  0  0  4           0  0  0
    0.0000    0.0000    0.0000 C   0  0  0  0  0  4           0  0  0
   -2.0113    0.0020    1.1355 C   0  0  0  0  0  4           0  0  0
   -2.0357    0.0341   -1.2005 C   0  0  0  0  0  4           0  0  0
   -0.6421    0.0020   -1.2343 C   0  0  0  0  0  4           0  0  0
   -2.3253   -0.0155    3.6594 C   0  0  0  0  0  4           0  0  0
   -3.1323   -0.6352    4.6307 C   0  0  0  0  0  4           0  0  0
   -1.5484   -0.0855    6.3662 C   0  0  0  0  0  4           0  0  0
   -1.1206    0.5679    4.0732 C   0  0  0  0  0  4           0  0  0
   -0.7363    0.5317    5.4148 C   0  0  0  0  0  4           0  0  0
   -4.2660   -0.1557    8.2785 C   0  0  0  0  0  4           0  0  0
    1.9744    0.0000    1.3013 C   0  0  0  0  0  4           0  0  0
    3.4972    0.0000    1.1785 C   0  0  2  0  0  4           0  0  0
    3.9725    1.2460    0.4184 C   0  0  0  0  0  4           0  0  0
    4.0032   -1.2830    0.4968 C   0  0  0  0  0  4           0  0  0
    5.4875    1.2550    0.2326 C   0  0  0  0  0  4           0  0  0
    5.5183   -1.2655    0.3057 C   0  0  0  0  0  4           0  0  0
    5.9790   -0.0200   -0.4440 C   0  0  0  0  0  4           0  0  0
  1  9  1  0     0  0
  1 19  1  0     0  0
  2  6  2  0     0  0
  3 10  1  0     0  0
  3 20  1  0     0  0
  4 10  2  0     0  0
  4 11  1  0     0  0
  5 11  2  0     0  0
  5 12  1  0     0  0
  6 13  1  0     0  0
  7 11  1  0     0  0
  7 14  1  0     0  0
  8 12  1  0     0  0
  9 15  2  0     0  0
  9 16  1  0     0  0
 10 13  1  0     0  0
 12 13  2  0     0  0
 14 15  1  0     0  0
 14 17  2  0     0  0
 16 18  2  0     0  0
 17 18  1  0     0  0
 20 21  1  0     0  0
 21 22  1  0     0  0
 21 23  1  0     0  0
 22 24  1  0     0  0
 23 25  1  0     0  0
 24 26  1  0     0  0
 25 26  1  0     0  0
M  END
> <Compound >
7

> <standard_type>
pIC50

> <# Confs.>
25

> <canonical_smiles>
NC1=C(N=O)C(OCC2CCCCC2)=NC(NC3=CC=CC(SC)=C3)=N1

> <standard_relation>
=

> <predicted_activity_value>
5.9899545873639015

> <actual_activity_value>
6.3979400086720375

> <Publication ID>
nan

> <standard_units>
nM

> hash
10733327821956238231

$$$$
6
XXILIB    08252103513D 0   0.00000     0.00000

 26 28  0     1  0            999 V2000
   -3.8480    1.3912    7.1546 S   0  0  0  0  0  2           0  0  0
   -0.5282    0.5741   -3.3495 O   0  0  0  0  0  2           0  0  0
    1.3872    0.0000    0.0000 O   0  0  0  0  0  2           0  0  0
   -0.6613   -0.0000    1.1796 N   0  0  0  0  0  3           0  0  0
   -2.7104    0.0132   -0.0234 N   0  0  0  0  0  3           0  0  0
    0.0579    0.0086   -2.4187 N   0  0  0  0  0  3           0  0  0
   -2.7474   -0.0055    2.3276 N   0  0  0  0  0  3           0  0  0
   -2.7860    0.0173   -2.3759 N   0  0  0  0  0  3           0  0  0
   -2.7520    0.6174    5.9913 C   0  0  0  0  0  4           0  0  0
    0.0000    0.0000    0.0000 C   0  0  0  0  0  4           0  0  0
   -2.0113    0.0020    1.1355 C   0  0  0  0  0  4           0  0  0
   -2.0357    0.0341   -1.2005 C   0  0  0  0  0  4           0  0  0
   -0.6421    0.0020   -1.2343 C   0  0  0  0  0  4           0  0  0
   -2.3253   -0.0155    3.6594 C   0  0  0  0  0  4           0  0  0
   -3.1308    0.5925    4.6394 C   0  0  0  0  0  4           0  0  0
   -1.5528    0.0064    6.3682 C   0  0  0  0  0  4           0  0  0
   -1.1249   -0.6127    4.0658 C   0  0  0  0  0  4           0  0  0
   -0.7437   -0.6020    5.4087 C   0  0  0  0  0  4           0  0  0
   -4.2288    0.0235    8.2852 C   0  0  0  0  0  4           0  0  0
    1.9744    0.0000    1.3013 C   0  0  0  0  0  4           0  0  0
    3.4972    0.0000    1.1785 C   0  0  2  0  0  4           0  0  0
    3.9725    1.2460    0.4184 C   0  0  0  0  0  4           0  0  0
    4.0032   -1.2830    0.4968 C   0  0  0  0  0  4           0  0  0
    5.4875    1.2550    0.2326 C   0  0  0  0  0  4           0  0  0
    5.5183   -1.2655    0.3057 C   0  0  0  0  0  4           0  0  0
    5.9790   -0.0200   -0.4440 C   0  0  0  0  0  4           0  0  0
  1  9  1  0     0  0
  1 19  1  0     0  0
  2  6  2  0     0  0
  3 10  1  0     0  0
  3 20  1  0     0  0
  4 10  2  0     0  0
  4 11  1  0     0  0
  5 11  2  0     0  0
  5 12  1  0     0  0
  6 13  1  0     0  0
  7 11  1  0     0  0
  7 14  1  0     0  0
  8 12  1  0     0  0
  9 15  2  0     0  0
  9 16  1  0     0  0
 10 13  1  0     0  0
 12 13  2  0     0  0
 14 15  1  0     0  0
 14 17  2  0     0  0
 16 18  2  0     0  0
 17 18  1  0     0  0
 20 21  1  0     0  0
 21 22  1  0     0  0
 21 23  1  0     0  0
 22 24  1  0     0  0
 23 25  1  0     0  0
 24 26  1  0     0  0
 25 26  1  0     0  0
M  END
> <Compound >
7

> <standard_type>
pIC50

> <# Confs.>
25

> <canonical_smiles>
NC1=C(N=O)C(OCC2CCCCC2)=NC(NC3=CC=CC(SC)=C3)=N1

> <standard_relation>
=

> <predicted_activity_value>
5.9899545873639015

> <actual_activity_value>
6.3979400086720375

> <Publication ID>
nan

> <standard_units>
nM

> hash
10733327821956238231

$$$$
6
XXILIB    08252103513D 0   0.00000     0.00000

 26 28  0     1  0            999 V2000
   -6.5610    1.4327    5.4661 S   0  0  0  0  0  2           0  0  0
   -0.5282    0.5741   -3.3495 O   0  0  0  0  0  2           0  0  0
    1.3872    0.0000    0.0000 O   0  0  0  0  0  2           0  0  0
   -0.6613   -0.0000    1.1796 N   0  0  0  0  0  3           0  0  0
   -2.7104    0.0132   -0.0234 N   0  0  0  0  0  3           0  0  0
    0.0579    0.0086   -2.4187 N   0  0  0  0  0  3           0  0  0
   -2.7474   -0.0055    2.3276 N   0  0  0  0  0  3           0  0  0
   -2.7860    0.0173   -2.3759 N   0  0  0  0  0  3           0  0  0
   -6.0148    0.6243    3.9824 C   0  0  0  0  0  4           0  0  0
    0.0000    0.0000   -0.0000 C   0  0  0  0  0  4           0  0  0
   -2.0113    0.0020    1.1355 C   0  0  0  0  0  4           0  0  0
   -2.0357    0.0341   -1.2005 C   0  0  0  0  0  4           0  0  0
   -0.6421    0.0020   -1.2343 C   0  0  0  0  0  4           0  0  0
   -4.1272   -0.0054    2.5468 C   0  0  0  0  0  4           0  0  0
   -4.6377    0.6009    3.7089 C   0  0  0  0  0  4           0  0  0
   -6.8956    0.0443    3.0651 C   0  0  0  0  0  4           0  0  0
   -5.0335   -0.5857    1.6497 C   0  0  0  0  0  4           0  0  0
   -6.4053   -0.5596    1.9073 C   0  0  0  0  0  4           0  0  0
   -7.6492    2.7300    4.8130 C   0  0  0  0  0  4           0  0  0
    1.9744    0.0000    1.3013 C   0  0  0  0  0  4           0  0  0
    3.4972    0.0000    1.1785 C   0  0  2  0  0  4           0  0  0
    4.1460   -0.0000    2.5696 C   0  0  0  0  0  4           0  0  0
    3.9909    1.1947    0.3444 C   0  0  0  0  0  4           0  0  0
    5.6693    0.0504    2.4863 C   0  0  0  0  0  4           0  0  0
    5.5156    1.2455    0.2710 C   0  0  0  0  0  4           0  0  0
    6.1486    1.2378    1.6584 C   0  0  0  0  0  4           0  0  0
  1  9  1  0     0  0
  1 19  1  0     0  0
  2  6  2  0     0  0
  3 10  1  0     0  0
  3 20  1  0     0  0
  4 10  2  0     0  0
  4 11  1  0     0  0
  5 11  2  0     0  0
  5 12  1  0     0  0
  6 13  1  0     0  0
  7 11  1  0     0  0
  7 14  1  0     0  0
  8 12  1  0     0  0
  9 15  2  0     0  0
  9 16  1  0     0  0
 10 13  1  0     0  0
 12 13  2  0     0  0
 14 15  1  0     0  0
 14 17  2  0     0  0
 16 18  2  0     0  0
 17 18  1  0     0  0
 20 21  1  0     0  0
 21 22  1  0     0  0
 21 23  1  0     0  0
 22 24  1  0     0  0
 23 25  1  0     0  0
 24 26  1  0     0  0
 25 26  1  0     0  0
M  END
> <Compound >
7

> <standard_type>
pIC50

> <# Confs.>
25

> <canonical_smiles>
NC1=C(N=O)C(OCC2CCCCC2)=NC(NC3=CC=CC(SC)=C3)=N1

> <standard_relation>
=

> <predicted_activity_value>
5.9899545873639015

> <actual_activity_value>
6.3979400086720375

> <Publication ID>
nan

> <standard_units>
nM

> hash
10733327821956238231

$$$$
6
XXILIB    08252103513D 0   0.00000     0.00000

 26 28  0     1  0            999 V2000
   -6.5610    1.4327    5.4661 S   0  0  0  0  0  2           0  0  0
   -0.5282    0.5741   -3.3495 O   0  0  0  0  0  2           0  0  0
    1.3872    0.0000    0.0000 O   0  0  0  0  0  2           0  0  0
   -0.6613   -0.0000    1.1796 N   0  0  0  0  0  3           0  0  0
   -2.7104    0.0132   -0.0234 N   0  0  0  0  0  3           0  0  0
    0.0579    0.0086   -2.4187 N   0  0  0  0  0  3           0  0  0
   -2.7474   -0.0055    2.3276 N   0  0  0  0  0  3           0  0  0
   -2.7860    0.0173   -2.3759 N   0  0  0  0  0  3           0  0  0
   -6.0148    0.6243    3.9824 C   0  0  0  0  0  4           0  0  0
    0.0000    0.0000   -0.0000 C   0  0  0  0  0  4           0  0  0
   -2.0113    0.0020    1.1355 C   0  0  0  0  0  4           0  0  0
   -2.0357    0.0341   -1.2005 C   0  0  0  0  0  4           0  0  0
   -0.6421    0.0020   -1.2343 C   0  0  0  0  0  4           0  0  0
   -4.1272   -0.0054    2.5468 C   0  0  0  0  0  4           0  0  0
   -4.6377    0.6009    3.7089 C   0  0  0  0  0  4           0  0  0
   -6.8956    0.0443    3.0651 C   0  0  0  0  0  4           0  0  0
   -5.0335   -0.5857    1.6497 C   0  0  0  0  0  4           0  0  0
   -6.4053   -0.5596    1.9073 C   0  0  0  0  0  4           0  0  0
   -7.6492    2.7300    4.8130 C   0  0  0  0  0  4           0  0  0
    1.9744    0.0000    1.3013 C   0  0  0  0  0  4           0  0  0
    3.4972    0.0000    1.1785 C   0  0  2  0  0  4           0  0  0
    3.9725   -1.2460    0.4184 C   0  0  0  0  0  4           0  0  0
    4.1696    0.0883    2.5594 C   0  0  0  0  0  4           0  0  0
    5.4945   -1.3054    0.3197 C   0  0  0  0  0  4           0  0  0
    5.6918    0.0201    2.4559 C   0  0  0  0  0  4           0  0  0
    6.1514   -1.2178    1.6930 C   0  0  0  0  0  4           0  0  0
  1  9  1  0     0  0
  1 19  1  0     0  0
  2  6  2  0     0  0
  3 10  1  0     0  0
  3 20  1  0     0  0
  4 10  2  0     0  0
  4 11  1  0     0  0
  5 11  2  0     0  0
  5 12  1  0     0  0
  6 13  1  0     0  0
  7 11  1  0     0  0
  7 14  1  0     0  0
  8 12  1  0     0  0
  9 15  2  0     0  0
  9 16  1  0     0  0
 10 13  1  0     0  0
 12 13  2  0     0  0
 14 15  1  0     0  0
 14 17  2  0     0  0
 16 18  2  0     0  0
 17 18  1  0     0  0
 20 21  1  0     0  0
 21 22  1  0     0  0
 21 23  1  0     0  0
 22 24  1  0     0  0
 23 25  1  0     0  0
 24 26  1  0     0  0
 25 26  1  0     0  0
M  END
> <Compound >
7

> <standard_type>
pIC50

> <# Confs.>
25

> <canonical_smiles>
NC1=C(N=O)C(OCC2CCCCC2)=NC(NC3=CC=CC(SC)=C3)=N1

> <standard_relation>
=

> <predicted_activity_value>
5.9899545873639015

> <actual_activity_value>
6.3979400086720375

> <Publication ID>
nan

> <standard_units>
nM

> hash
10733327821956238231

$$$$
6
XXILIB    08252103513D 0   0.00000     0.00000

 26 28  0     1  0            999 V2000
   -6.5622   -1.4525    5.4607 S   0  0  0  0  0  2           0  0  0
   -0.5282    0.5741   -3.3495 O   0  0  0  0  0  2           0  0  0
    1.3872    0.0000    0.0000 O   0  0  0  0  0  2           0  0  0
   -0.6613   -0.0000    1.1796 N   0  0  0  0  0  3           0  0  0
   -2.7104    0.0132   -0.0234 N   0  0  0  0  0  3           0  0  0
    0.0579    0.0086   -2.4187 N   0  0  0  0  0  3           0  0  0
   -2.7474   -0.0055    2.3276 N   0  0  0  0  0  3           0  0  0
   -2.7860    0.0173   -2.3759 N   0  0  0  0  0  3           0  0  0
   -6.0174   -0.6619    3.9669 C   0  0  0  0  0  4           0  0  0
    0.0000    0.0000   -0.0000 C   0  0  0  0  0  4           0  0  0
   -2.0113    0.0020    1.1355 C   0  0  0  0  0  4           0  0  0
   -2.0357    0.0341   -1.2005 C   0  0  0  0  0  4           0  0  0
   -0.6421    0.0020   -1.2343 C   0  0  0  0  0  4           0  0  0
   -4.1272   -0.0054    2.5468 C   0  0  0  0  0  4           0  0  0
   -4.6392   -0.6268    3.7003 C   0  0  0  0  0  4           0  0  0
   -6.8950   -0.0476    3.0691 C   0  0  0  0  0  4           0  0  0
   -5.0316    0.5948    1.6610 C   0  0  0  0  0  4           0  0  0
   -6.4030    0.5740    1.9215 C   0  0  0  0  0  4           0  0  0
   -7.6316   -2.7730    4.8231 C   0  0  0  0  0  4           0  0  0
    1.9744    0.0000    1.3013 C   0  0  0  0  0  4           0  0  0
    3.4972    0.0000    1.1785 C   0  0  2  0  0  4           0  0  0
    4.1460   -0.0000    2.5696 C   0  0  0  0  0  4           0  0  0
    3.9909    1.1947    0.3444 C   0  0  0  0  0  4           0  0  0
    5.6693    0.0504    2.4863 C   0  0  0  0  0  4           0  0  0
    5.5156    1.2455    0.2710 C   0  0  0  0  0  4           0  0  0
    6.1486    1.2378    1.6584 C   0  0  0  0  0  4           0  0  0
  1  9  1  0     0  0
  1 19  1  0     0  0
  2  6  2  0     0  0
  3 10  1  0     0  0
  3 20  1  0     0  0
  4 10  2  0     0  0
  4 11  1  0     0  0
  5 11  2  0     0  0
  5 12  1  0     0  0
  6 13  1  0     0  0
  7 11  1  0     0  0
  7 14  1  0     0  0
  8 12  1  0     0  0
  9 15  2  0     0  0
  9 16  1  0     0  0
 10 13  1  0     0  0
 12 13  2  0     0  0
 14 15  1  0     0  0
 14 17  2  0     0  0
 16 18  2  0     0  0
 17 18  1  0     0  0
 20 21  1  0     0  0
 21 22  1  0     0  0
 21 23  1  0     0  0
 22 24  1  0     0  0
 23 25  1  0     0  0
 24 26  1  0     0  0
 25 26  1  0     0  0
M  END
> <Compound >
7

> <standard_type>
pIC50

> <# Confs.>
25

> <canonical_smiles>
NC1=C(N=O)C(OCC2CCCCC2)=NC(NC3=CC=CC(SC)=C3)=N1

> <standard_relation>
=

> <predicted_activity_value>
5.9899545873639015

> <actual_activity_value>
6.3979400086720375

> <Publication ID>
nan

> <standard_units>
nM

> hash
10733327821956238231

$$$$
6
XXILIB    08252103513D 0   0.00000     0.00000

 26 28  0     1  0            999 V2000
   -6.5610    1.4327    5.4661 S   0  0  0  0  0  2           0  0  0
   -0.5282    0.5741   -3.3495 O   0  0  0  0  0  2           0  0  0
    1.3872    0.0000    0.0000 O   0  0  0  0  0  2           0  0  0
   -0.6613   -0.0000    1.1796 N   0  0  0  0  0  3           0  0  0
   -2.7104    0.0132   -0.0234 N   0  0  0  0  0  3           0  0  0
    0.0579    0.0086   -2.4187 N   0  0  0  0  0  3           0  0  0
   -2.7474   -0.0055    2.3276 N   0  0  0  0  0  3           0  0  0
   -2.7860    0.0173   -2.3759 N   0  0  0  0  0  3           0  0  0
   -6.0148    0.6243    3.9824 C   0  0  0  0  0  4           0  0  0
    0.0000    0.0000   -0.0000 C   0  0  0  0  0  4           0  0  0
   -2.0113    0.0020    1.1355 C   0  0  0  0  0  4           0  0  0
   -2.0357    0.0341   -1.2005 C   0  0  0  0  0  4           0  0  0
   -0.6421    0.0020   -1.2343 C   0  0  0  0  0  4           0  0  0
   -4.1272   -0.0054    2.5468 C   0  0  0  0  0  4           0  0  0
   -4.6377    0.6009    3.7089 C   0  0  0  0  0  4           0  0  0
   -6.8956    0.0443    3.0651 C   0  0  0  0  0  4           0  0  0
   -5.0335   -0.5857    1.6497 C   0  0  0  0  0  4           0  0  0
   -6.4053   -0.5596    1.9073 C   0  0  0  0  0  4           0  0  0
   -7.3884    0.0818    6.3519 C   0  0  0  0  0  4           0  0  0
    1.9744    0.0000    1.3013 C   0  0  0  0  0  4           0  0  0
    3.4972    0.0000    1.1785 C   0  0  2  0  0  4           0  0  0
    4.1460   -0.0000    2.5696 C   0  0  0  0  0  4           0  0  0
    3.9909    1.1947    0.3444 C   0  0  0  0  0  4           0  0  0
    5.6693    0.0504    2.4863 C   0  0  0  0  0  4           0  0  0
    5.5156    1.2455    0.2710 C   0  0  0  0  0  4           0  0  0
    6.1486    1.2378    1.6584 C   0  0  0  0  0  4           0  0  0
  1  9  1  0     0  0
  1 19  1  0     0  0
  2  6  2  0     0  0
  3 10  1  0     0  0
  3 20  1  0     0  0
  4 10  2  0     0  0
  4 11  1  0     0  0
  5 11  2  0     0  0
  5 12  1  0     0  0
  6 13  1  0     0  0
  7 11  1  0     0  0
  7 14  1  0     0  0
  8 12  1  0     0  0
  9 15  2  0     0  0
  9 16  1  0     0  0
 10 13  1  0     0  0
 12 13  2  0     0  0
 14 15  1  0     0  0
 14 17  2  0     0  0
 16 18  2  0     0  0
 17 18  1  0     0  0
 20 21  1  0     0  0
 21 22  1  0     0  0
 21 23  1  0     0  0
 22 24  1  0     0  0
 23 25  1  0     0  0
 24 26  1  0     0  0
 25 26  1  0     0  0
M  END
> <Compound >
7

> <standard_type>
pIC50

> <# Confs.>
25

> <canonical_smiles>
NC1=C(N=O)C(OCC2CCCCC2)=NC(NC3=CC=CC(SC)=C3)=N1

> <standard_relation>
=

> <predicted_activity_value>
5.9899545873639015

> <actual_activity_value>
6.3979400086720375

> <Publication ID>
nan

> <standard_units>
nM

> hash
10733327821956238231

$$$$
6
XXILIB    08252103513D 0   0.00000     0.00000

 26 28  0     1  0            999 V2000
   -6.5622   -1.4525    5.4607 S   0  0  0  0  0  2           0  0  0
   -0.5282    0.5741   -3.3495 O   0  0  0  0  0  2           0  0  0
    1.3872    0.0000    0.0000 O   0  0  0  0  0  2           0  0  0
   -0.6613   -0.0000    1.1796 N   0  0  0  0  0  3           0  0  0
   -2.7104    0.0132   -0.0234 N   0  0  0  0  0  3           0  0  0
    0.0579    0.0086   -2.4187 N   0  0  0  0  0  3           0  0  0
   -2.7474   -0.0055    2.3276 N   0  0  0  0  0  3           0  0  0
   -2.7860    0.0173   -2.3759 N   0  0  0  0  0  3           0  0  0
   -6.0174   -0.6619    3.9669 C   0  0  0  0  0  4           0  0  0
    0.0000    0.0000   -0.0000 C   0  0  0  0  0  4           0  0  0
   -2.0113    0.0020    1.1355 C   0  0  0  0  0  4           0  0  0
   -2.0357    0.0341   -1.2005 C   0  0  0  0  0  4           0  0  0
   -0.6421    0.0020   -1.2343 C   0  0  0  0  0  4           0  0  0
   -4.1272   -0.0054    2.5468 C   0  0  0  0  0  4           0  0  0
   -4.6392   -0.6268    3.7003 C   0  0  0  0  0  4           0  0  0
   -6.8950   -0.0476    3.0691 C   0  0  0  0  0  4           0  0  0
   -5.0316    0.5948    1.6610 C   0  0  0  0  0  4           0  0  0
   -6.4030    0.5740    1.9215 C   0  0  0  0  0  4           0  0  0
   -7.6316   -2.7730    4.8231 C   0  0  0  0  0  4           0  0  0
    1.9744    0.0000    1.3013 C   0  0  0  0  0  4           0  0  0
    3.4972    0.0000    1.1785 C   0  0  2  0  0  4           0  0  0
    3.9725   -1.2460    0.4184 C   0  0  0  0  0  4           0  0  0
    4.1696    0.0883    2.5594 C   0  0  0  0  0  4           0  0  0
    5.4945   -1.3054    0.3197 C   0  0  0  0  0  4           0  0  0
    5.6918    0.0201    2.4559 C   0  0  0  0  0  4           0  0  0
    6.1514   -1.2178    1.6930 C   0  0  0  0  0  4           0  0  0
  1  9  1  0     0  0
  1 19  1  0     0  0
  2  6  2  0     0  0
  3 10  1  0     0  0
  3 20  1  0     0  0
  4 10  2  0     0  0
  4 11  1  0     0  0
  5 11  2  0     0  0
  5 12  1  0     0  0
  6 13  1  0     0  0
  7 11  1  0     0  0
  7 14  1  0     0  0
  8 12  1  0     0  0
  9 15  2  0     0  0
  9 16  1  0     0  0
 10 13  1  0     0  0
 12 13  2  0     0  0
 14 15  1  0     0  0
 14 17  2  0     0  0
 16 18  2  0     0  0
 17 18  1  0     0  0
 20 21  1  0     0  0
 21 22  1  0     0  0
 21 23  1  0     0  0
 22 24  1  0     0  0
 23 25  1  0     0  0
 24 26  1  0     0  0
 25 26  1  0     0  0
M  END
> <Compound >
7

> <standard_type>
pIC50

> <# Confs.>
25

> <canonical_smiles>
NC1=C(N=O)C(OCC2CCCCC2)=NC(NC3=CC=CC(SC)=C3)=N1

> <standard_relation>
=

> <predicted_activity_value>
5.9899545873639015

> <actual_activity_value>
6.3979400086720375

> <Publication ID>
nan

> <standard_units>
nM

> hash
10733327821956238231

$$$$
6
XXILIB    08252103513D 0   0.00000     0.00000

 26 28  0     1  0            999 V2000
   -6.5610    1.4327    5.4661 S   0  0  0  0  0  2           0  0  0
   -0.5282    0.5741   -3.3495 O   0  0  0  0  0  2           0  0  0
    1.3872    0.0000    0.0000 O   0  0  0  0  0  2           0  0  0
   -0.6613   -0.0000    1.1796 N   0  0  0  0  0  3           0  0  0
   -2.7104    0.0132   -0.0234 N   0  0  0  0  0  3           0  0  0
    0.0579    0.0086   -2.4187 N   0  0  0  0  0  3           0  0  0
   -2.7474   -0.0055    2.3276 N   0  0  0  0  0  3           0  0  0
   -2.7860    0.0173   -2.3759 N   0  0  0  0  0  3           0  0  0
   -6.0148    0.6243    3.9824 C   0  0  0  0  0  4           0  0  0
    0.0000    0.0000   -0.0000 C   0  0  0  0  0  4           0  0  0
   -2.0113    0.0020    1.1355 C   0  0  0  0  0  4           0  0  0
   -2.0357    0.0341   -1.2005 C   0  0  0  0  0  4           0  0  0
   -0.6421    0.0020   -1.2343 C   0  0  0  0  0  4           0  0  0
   -4.1272   -0.0054    2.5468 C   0  0  0  0  0  4           0  0  0
   -4.6377    0.6009    3.7089 C   0  0  0  0  0  4           0  0  0
   -6.8956    0.0443    3.0651 C   0  0  0  0  0  4           0  0  0
   -5.0335   -0.5857    1.6497 C   0  0  0  0  0  4           0  0  0
   -6.4053   -0.5596    1.9073 C   0  0  0  0  0  4           0  0  0
   -7.3884    0.0818    6.3519 C   0  0  0  0  0  4           0  0  0
    1.9744    0.0000    1.3013 C   0  0  0  0  0  4           0  0  0
    3.4972    0.0000    1.1785 C   0  0  2  0  0  4           0  0  0
    3.9725   -1.2460    0.4184 C   0  0  0  0  0  4           0  0  0
    4.1696    0.0883    2.5594 C   0  0  0  0  0  4           0  0  0
    5.4945   -1.3054    0.3197 C   0  0  0  0  0  4           0  0  0
    5.6918    0.0201    2.4559 C   0  0  0  0  0  4           0  0  0
    6.1514   -1.2178    1.6930 C   0  0  0  0  0  4           0  0  0
  1  9  1  0     0  0
  1 19  1  0     0  0
  2  6  2  0     0  0
  3 10  1  0     0  0
  3 20  1  0     0  0
  4 10  2  0     0  0
  4 11  1  0     0  0
  5 11  2  0     0  0
  5 12  1  0     0  0
  6 13  1  0     0  0
  7 11  1  0     0  0
  7 14  1  0     0  0
  8 12  1  0     0  0
  9 15  2  0     0  0
  9 16  1  0     0  0
 10 13  1  0     0  0
 12 13  2  0     0  0
 14 15  1  0     0  0
 14 17  2  0     0  0
 16 18  2  0     0  0
 17 18  1  0     0  0
 20 21  1  0     0  0
 21 22  1  0     0  0
 21 23  1  0     0  0
 22 24  1  0     0  0
 23 25  1  0     0  0
 24 26  1  0     0  0
 25 26  1  0     0  0
M  END
> <Compound >
7

> <standard_type>
pIC50

> <# Confs.>
25

> <canonical_smiles>
NC1=C(N=O)C(OCC2CCCCC2)=NC(NC3=CC=CC(SC)=C3)=N1

> <standard_relation>
=

> <predicted_activity_value>
5.9899545873639015

> <actual_activity_value>
6.3979400086720375

> <Publication ID>
nan

> <standard_units>
nM

> hash
10733327821956238231

$$$$
6
XXILIB    08252103513D 0   0.00000     0.00000

 26 28  0     1  0            999 V2000
    0.9157    1.4223    5.6452 S   0  0  0  0  0  2           0  0  0
   -0.5243   -0.5546   -3.3534 O   0  0  0  0  0  2           0  0  0
    1.3872    0.0000    0.0000 O   0  0  0  0  0  2           0  0  0
   -0.6613   -0.0000    1.1796 N   0  0  0  0  0  3           0  0  0
   -2.7104    0.0132   -0.0234 N   0  0  0  0  0  3           0  0  0
    0.0579    0.0086   -2.4187 N   0  0  0  0  0  3           0  0  0
   -2.7474   -0.0055    2.3276 N   0  0  0  0  0  3           0  0  0
   -2.7860    0.0173   -2.3759 N   0  0  0  0  0  3           0  0  0
   -0.6283    0.6083    5.3182 C   0  0  0  0  0  4           0  0  0
    0.0000    0.0000    0.0000 C   0  0  0  0  0  4           0  0  0
   -2.0113    0.0020    1.1355 C   0  0  0  0  0  4           0  0  0
   -2.0357    0.0341   -1.2005 C   0  0  0  0  0  4           0  0  0
   -0.6421    0.0020   -1.2343 C   0  0  0  0  0  4           0  0  0
   -2.3253   -0.0155    3.6594 C   0  0  0  0  0  4           0  0  0
   -1.1035    0.5946    3.9969 C   0  0  0  0  0  4           0  0  0
   -1.4010    0.0146    6.3202 C   0  0  0  0  0  4           0  0  0
   -3.0742   -0.6095    4.6836 C   0  0  0  0  0  4           0  0  0
   -2.6155   -0.5931    6.0020 C   0  0  0  0  0  4           0  0  0
    1.5527    0.4753    7.0563 C   0  0  0  0  0  4           0  0  0
    1.9744    0.0000    1.3013 C   0  0  0  0  0  4           0  0  0
    3.4972    0.0000    1.1785 C   0  0  2  0  0  4           0  0  0
    4.1460   -0.0000    2.5696 C   0  0  0  0  0  4           0  0  0
    3.9909    1.1947    0.3444 C   0  0  0  0  0  4           0  0  0
    5.6693    0.0504    2.4863 C   0  0  0  0  0  4           0  0  0
    5.5156    1.2455    0.2710 C   0  0  0  0  0  4           0  0  0
    6.1486    1.2378    1.6584 C   0  0  0  0  0  4           0  0  0
  1  9  1  0     0  0
  1 19  1  0     0  0
  2  6  2  0     0  0
  3 10  1  0     0  0
  3 20  1  0     0  0
  4 10  2  0     0  0
  4 11  1  0     0  0
  5 11  2  0     0  0
  5 12  1  0     0  0
  6 13  1  0     0  0
  7 11  1  0     0  0
  7 14  1  0     0  0
  8 12  1  0     0  0
  9 15  2  0     0  0
  9 16  1  0     0  0
 10 13  1  0     0  0
 12 13  2  0     0  0
 14 15  1  0     0  0
 14 17  2  0     0  0
 16 18  2  0     0  0
 17 18  1  0     0  0
 20 21  1  0     0  0
 21 22  1  0     0  0
 21 23  1  0     0  0
 22 24  1  0     0  0
 23 25  1  0     0  0
 24 26  1  0     0  0
 25 26  1  0     0  0
M  END
> <Compound >
7

> <standard_type>
pIC50

> <# Confs.>
25

> <canonical_smiles>
NC1=C(N=O)C(OCC2CCCCC2)=NC(NC3=CC=CC(SC)=C3)=N1

> <standard_relation>
=

> <predicted_activity_value>
5.9899545873639015

> <actual_activity_value>
6.3979400086720375

> <Publication ID>
nan

> <standard_units>
nM

> hash
10733327821956238231

$$$$
6
XXILIB    08252103513D 0   0.00000     0.00000

 26 28  0     1  0            999 V2000
   -6.5610    1.4327    5.4661 S   0  0  0  0  0  2           0  0  0
   -0.5282    0.5741   -3.3495 O   0  0  0  0  0  2           0  0  0
    1.3872    0.0000    0.0000 O   0  0  0  0  0  2           0  0  0
   -0.6613   -0.0000    1.1796 N   0  0  0  0  0  3           0  0  0
   -2.7104    0.0132   -0.0234 N   0  0  0  0  0  3           0  0  0
    0.0579    0.0086   -2.4187 N   0  0  0  0  0  3           0  0  0
   -2.7474   -0.0055    2.3276 N   0  0  0  0  0  3           0  0  0
   -2.7860    0.0173   -2.3759 N   0  0  0  0  0  3           0  0  0
   -6.0148    0.6243    3.9824 C   0  0  0  0  0  4           0  0  0
    0.0000    0.0000   -0.0000 C   0  0  0  0  0  4           0  0  0
   -2.0113    0.0020    1.1355 C   0  0  0  0  0  4           0  0  0
   -2.0357    0.0341   -1.2005 C   0  0  0  0  0  4           0  0  0
   -0.6421    0.0020   -1.2343 C   0  0  0  0  0  4           0  0  0
   -4.1272   -0.0054    2.5468 C   0  0  0  0  0  4           0  0  0
   -4.6377    0.6009    3.7089 C   0  0  0  0  0  4           0  0  0
   -6.8956    0.0443    3.0651 C   0  0  0  0  0  4           0  0  0
   -5.0335   -0.5857    1.6497 C   0  0  0  0  0  4           0  0  0
   -6.4053   -0.5596    1.9073 C   0  0  0  0  0  4           0  0  0
   -7.6492    2.7300    4.8130 C   0  0  0  0  0  4           0  0  0
    1.9744    0.0000    1.3013 C   0  0  0  0  0  4           0  0  0
    3.4972    0.0000    1.1785 C   0  0  2  0  0  4           0  0  0
    3.9725    1.2460    0.4184 C   0  0  0  0  0  4           0  0  0
    4.0032   -1.2830    0.4968 C   0  0  0  0  0  4           0  0  0
    5.4875    1.2550    0.2326 C   0  0  0  0  0  4           0  0  0
    5.5183   -1.2655    0.3057 C   0  0  0  0  0  4           0  0  0
    5.9790   -0.0200   -0.4440 C   0  0  0  0  0  4           0  0  0
  1  9  1  0     0  0
  1 19  1  0     0  0
  2  6  2  0     0  0
  3 10  1  0     0  0
  3 20  1  0     0  0
  4 10  2  0     0  0
  4 11  1  0     0  0
  5 11  2  0     0  0
  5 12  1  0     0  0
  6 13  1  0     0  0
  7 11  1  0     0  0
  7 14  1  0     0  0
  8 12  1  0     0  0
  9 15  2  0     0  0
  9 16  1  0     0  0
 10 13  1  0     0  0
 12 13  2  0     0  0
 14 15  1  0     0  0
 14 17  2  0     0  0
 16 18  2  0     0  0
 17 18  1  0     0  0
 20 21  1  0     0  0
 21 22  1  0     0  0
 21 23  1  0     0  0
 22 24  1  0     0  0
 23 25  1  0     0  0
 24 26  1  0     0  0
 25 26  1  0     0  0
M  END
> <Compound >
7

> <standard_type>
pIC50

> <# Confs.>
25

> <canonical_smiles>
NC1=C(N=O)C(OCC2CCCCC2)=NC(NC3=CC=CC(SC)=C3)=N1

> <standard_relation>
=

> <predicted_activity_value>
5.9899545873639015

> <actual_activity_value>
6.3979400086720375

> <Publication ID>
nan

> <standard_units>
nM

> hash
10733327821956238231

$$$$
6
XXILIB    08252103513D 0   0.00000     0.00000

 26 28  0     1  0            999 V2000
    0.9157    1.4223    5.6452 S   0  0  0  0  0  2           0  0  0
   -0.5243   -0.5546   -3.3534 O   0  0  0  0  0  2           0  0  0
    1.3872    0.0000    0.0000 O   0  0  0  0  0  2           0  0  0
   -0.6613   -0.0000    1.1796 N   0  0  0  0  0  3           0  0  0
   -2.7104    0.0132   -0.0234 N   0  0  0  0  0  3           0  0  0
    0.0579    0.0086   -2.4187 N   0  0  0  0  0  3           0  0  0
   -2.7474   -0.0055    2.3276 N   0  0  0  0  0  3           0  0  0
   -2.7860    0.0173   -2.3759 N   0  0  0  0  0  3           0  0  0
   -0.6283    0.6083    5.3182 C   0  0  0  0  0  4           0  0  0
    0.0000    0.0000    0.0000 C   0  0  0  0  0  4           0  0  0
   -2.0113    0.0020    1.1355 C   0  0  0  0  0  4           0  0  0
   -2.0357    0.0341   -1.2005 C   0  0  0  0  0  4           0  0  0
   -0.6421    0.0020   -1.2343 C   0  0  0  0  0  4           0  0  0
   -2.3253   -0.0155    3.6594 C   0  0  0  0  0  4           0  0  0
   -1.1035    0.5946    3.9969 C   0  0  0  0  0  4           0  0  0
   -1.4010    0.0146    6.3202 C   0  0  0  0  0  4           0  0  0
   -3.0742   -0.6095    4.6836 C   0  0  0  0  0  4           0  0  0
   -2.6155   -0.5931    6.0020 C   0  0  0  0  0  4           0  0  0
    1.5527    0.4753    7.0563 C   0  0  0  0  0  4           0  0  0
    1.9744    0.0000    1.3013 C   0  0  0  0  0  4           0  0  0
    3.4972    0.0000    1.1785 C   0  0  2  0  0  4           0  0  0
    3.9725   -1.2460    0.4184 C   0  0  0  0  0  4           0  0  0
    4.1696    0.0883    2.5594 C   0  0  0  0  0  4           0  0  0
    5.4945   -1.3054    0.3197 C   0  0  0  0  0  4           0  0  0
    5.6918    0.0201    2.4559 C   0  0  0  0  0  4           0  0  0
    6.1514   -1.2178    1.6930 C   0  0  0  0  0  4           0  0  0
  1  9  1  0     0  0
  1 19  1  0     0  0
  2  6  2  0     0  0
  3 10  1  0     0  0
  3 20  1  0     0  0
  4 10  2  0     0  0
  4 11  1  0     0  0
  5 11  2  0     0  0
  5 12  1  0     0  0
  6 13  1  0     0  0
  7 11  1  0     0  0
  7 14  1  0     0  0
  8 12  1  0     0  0
  9 15  2  0     0  0
  9 16  1  0     0  0
 10 13  1  0     0  0
 12 13  2  0     0  0
 14 15  1  0     0  0
 14 17  2  0     0  0
 16 18  2  0     0  0
 17 18  1  0     0  0
 20 21  1  0     0  0
 21 22  1  0     0  0
 21 23  1  0     0  0
 22 24  1  0     0  0
 23 25  1  0     0  0
 24 26  1  0     0  0
 25 26  1  0     0  0
M  END
> <Compound >
7

> <standard_type>
pIC50

> <# Confs.>
25

> <canonical_smiles>
NC1=C(N=O)C(OCC2CCCCC2)=NC(NC3=CC=CC(SC)=C3)=N1

> <standard_relation>
=

> <predicted_activity_value>
5.9899545873639015

> <actual_activity_value>
6.3979400086720375

> <Publication ID>
nan

> <standard_units>
nM

> hash
10733327821956238231

$$$$
6
XXILIB    08252103513D 0   0.00000     0.00000

 26 28  0     1  0            999 V2000
   -3.8371   -1.4938    7.1297 S   0  0  0  0  0  2           0  0  0
   -0.5282    0.5741   -3.3495 O   0  0  0  0  0  2           0  0  0
    1.3872    0.0000   -0.0000 O   0  0  0  0  0  2           0  0  0
   -0.6613   -0.0000    1.1796 N   0  0  0  0  0  3           0  0  0
   -2.7104    0.0132   -0.0234 N   0  0  0  0  0  3           0  0  0
    0.0579    0.0086   -2.4187 N   0  0  0  0  0  3           0  0  0
   -2.7474   -0.0055    2.3276 N   0  0  0  0  0  3           0  0  0
   -2.7860    0.0173   -2.3759 N   0  0  0  0  0  3           0  0  0
   -2.7598   -0.6688    5.9842 C   0  0  0  0  0  4           0  0  0
    0.0000    0.0000    0.0000 C   0  0  0  0  0  4           0  0  0
   -2.0113    0.0020    1.1355 C   0  0  0  0  0  4           0  0  0
   -2.0357    0.0341   -1.2005 C   0  0  0  0  0  4           0  0  0
   -0.6421    0.0020   -1.2343 C   0  0  0  0  0  4           0  0  0
   -2.3253   -0.0155    3.6594 C   0  0  0  0  0  4           0  0  0
   -3.1323   -0.6352    4.6307 C   0  0  0  0  0  4           0  0  0
   -1.5484   -0.0855    6.3662 C   0  0  0  0  0  4           0  0  0
   -1.1206    0.5679    4.0732 C   0  0  0  0  0  4           0  0  0
   -0.7363    0.5317    5.4148 C   0  0  0  0  0  4           0  0  0
   -3.8688   -3.1845    6.4708 C   0  0  0  0  0  4           0  0  0
    1.9744    0.6507    1.1270 C   0  0  0  0  0  4           0  0  0
    3.4972    0.5892    1.0206 C   0  0  2  0  0  4           0  0  0
    4.1460    1.2848    2.2253 C   0  0  0  0  0  4           0  0  0
    3.9909    1.2069   -0.2991 C   0  0  0  0  0  4           0  0  0
    5.6693    1.2869    2.1280 C   0  0  0  0  0  4           0  0  0
    5.5156    1.2141   -0.3880 C   0  0  0  0  0  4           0  0  0
    6.1486    1.9012    0.8173 C   0  0  0  0  0  4           0  0  0
  1  9  1  0     0  0
  1 19  1  0     0  0
  2  6  2  0     0  0
  3 10  1  0     0  0
  3 20  1  0     0  0
  4 10  2  0     0  0
  4 11  1  0     0  0
  5 11  2  0     0  0
  5 12  1  0     0  0
  6 13  1  0     0  0
  7 11  1  0     0  0
  7 14  1  0     0  0
  8 12  1  0     0  0
  9 15  2  0     0  0
  9 16  1  0     0  0
 10 13  1  0     0  0
 12 13  2  0     0  0
 14 15  1  0     0  0
 14 17  2  0     0  0
 16 18  2  0     0  0
 17 18  1  0     0  0
 20 21  1  0     0  0
 21 22  1  0     0  0
 21 23  1  0     0  0
 22 24  1  0     0  0
 23 25  1  0     0  0
 24 26  1  0     0  0
 25 26  1  0     0  0
M  END
> <Compound >
7

> <standard_type>
pIC50

> <# Confs.>
25

> <canonical_smiles>
NC1=C(N=O)C(OCC2CCCCC2)=NC(NC3=CC=CC(SC)=C3)=N1

> <standard_relation>
=

> <predicted_activity_value>
5.9899545873639015

> <actual_activity_value>
6.3979400086720375

> <Publication ID>
nan

> <standard_units>
nM

> hash
10733327821956238231

$$$$
6
XXILIB    08252103513D 0   0.00000     0.00000

 26 28  0     1  0            999 V2000
   -6.5622   -1.4525    5.4607 S   0  0  0  0  0  2           0  0  0
   -0.5282    0.5741   -3.3495 O   0  0  0  0  0  2           0  0  0
    1.3872    0.0000    0.0000 O   0  0  0  0  0  2           0  0  0
   -0.6613   -0.0000    1.1796 N   0  0  0  0  0  3           0  0  0
   -2.7104    0.0132   -0.0234 N   0  0  0  0  0  3           0  0  0
    0.0579    0.0086   -2.4187 N   0  0  0  0  0  3           0  0  0
   -2.7474   -0.0055    2.3276 N   0  0  0  0  0  3           0  0  0
   -2.7860    0.0173   -2.3759 N   0  0  0  0  0  3           0  0  0
   -6.0174   -0.6619    3.9669 C   0  0  0  0  0  4           0  0  0
    0.0000    0.0000   -0.0000 C   0  0  0  0  0  4           0  0  0
   -2.0113    0.0020    1.1355 C   0  0  0  0  0  4           0  0  0
   -2.0357    0.0341   -1.2005 C   0  0  0  0  0  4           0  0  0
   -0.6421    0.0020   -1.2343 C   0  0  0  0  0  4           0  0  0
   -4.1272   -0.0054    2.5468 C   0  0  0  0  0  4           0  0  0
   -4.6392   -0.6268    3.7003 C   0  0  0  0  0  4           0  0  0
   -6.8950   -0.0476    3.0691 C   0  0  0  0  0  4           0  0  0
   -5.0316    0.5948    1.6610 C   0  0  0  0  0  4           0  0  0
   -6.4030    0.5740    1.9215 C   0  0  0  0  0  4           0  0  0
   -7.6316   -2.7730    4.8231 C   0  0  0  0  0  4           0  0  0
    1.9744    0.0000    1.3013 C   0  0  0  0  0  4           0  0  0
    3.4972    0.0000    1.1785 C   0  0  2  0  0  4           0  0  0
    3.9725    1.2460    0.4184 C   0  0  0  0  0  4           0  0  0
    4.0032   -1.2830    0.4968 C   0  0  0  0  0  4           0  0  0
    5.4875    1.2550    0.2326 C   0  0  0  0  0  4           0  0  0
    5.5183   -1.2655    0.3057 C   0  0  0  0  0  4           0  0  0
    5.9790   -0.0200   -0.4440 C   0  0  0  0  0  4           0  0  0
  1  9  1  0     0  0
  1 19  1  0     0  0
  2  6  2  0     0  0
  3 10  1  0     0  0
  3 20  1  0     0  0
  4 10  2  0     0  0
  4 11  1  0     0  0
  5 11  2  0     0  0
  5 12  1  0     0  0
  6 13  1  0     0  0
  7 11  1  0     0  0
  7 14  1  0     0  0
  8 12  1  0     0  0
  9 15  2  0     0  0
  9 16  1  0     0  0
 10 13  1  0     0  0
 12 13  2  0     0  0
 14 15  1  0     0  0
 14 17  2  0     0  0
 16 18  2  0     0  0
 17 18  1  0     0  0
 20 21  1  0     0  0
 21 22  1  0     0  0
 21 23  1  0     0  0
 22 24  1  0     0  0
 23 25  1  0     0  0
 24 26  1  0     0  0
 25 26  1  0     0  0
M  END
> <Compound >
7

> <standard_type>
pIC50

> <# Confs.>
25

> <canonical_smiles>
NC1=C(N=O)C(OCC2CCCCC2)=NC(NC3=CC=CC(SC)=C3)=N1

> <standard_relation>
=

> <predicted_activity_value>
5.9899545873639015

> <actual_activity_value>
6.3979400086720375

> <Publication ID>
nan

> <standard_units>
nM

> hash
10733327821956238231

$$$$
6
XXILIB    08252103513D 0   0.00000     0.00000

 26 28  0     1  0            999 V2000
   -3.8480    1.3912    7.1546 S   0  0  0  0  0  2           0  0  0
   -0.5282    0.5741   -3.3495 O   0  0  0  0  0  2           0  0  0
    1.3872    0.0000    0.0000 O   0  0  0  0  0  2           0  0  0
   -0.6613   -0.0000    1.1796 N   0  0  0  0  0  3           0  0  0
   -2.7104    0.0132   -0.0234 N   0  0  0  0  0  3           0  0  0
    0.0579    0.0086   -2.4187 N   0  0  0  0  0  3           0  0  0
   -2.7474   -0.0055    2.3276 N   0  0  0  0  0  3           0  0  0
   -2.7860    0.0173   -2.3759 N   0  0  0  0  0  3           0  0  0
   -2.7520    0.6174    5.9913 C   0  0  0  0  0  4           0  0  0
    0.0000    0.0000    0.0000 C   0  0  0  0  0  4           0  0  0
   -2.0113    0.0020    1.1355 C   0  0  0  0  0  4           0  0  0
   -2.0357    0.0341   -1.2005 C   0  0  0  0  0  4           0  0  0
   -0.6421    0.0020   -1.2343 C   0  0  0  0  0  4           0  0  0
   -2.3253   -0.0155    3.6594 C   0  0  0  0  0  4           0  0  0
   -3.1308    0.5925    4.6394 C   0  0  0  0  0  4           0  0  0
   -1.5528    0.0064    6.3682 C   0  0  0  0  0  4           0  0  0
   -1.1249   -0.6127    4.0658 C   0  0  0  0  0  4           0  0  0
   -0.7437   -0.6020    5.4087 C   0  0  0  0  0  4           0  0  0
   -3.9358    3.0899    6.5215 C   0  0  0  0  0  4           0  0  0
    1.9744   -0.6507    1.1270 C   0  0  0  0  0  4           0  0  0
    3.4972   -0.5892    1.0206 C   0  0  2  0  0  4           0  0  0
    3.9725   -1.2883   -0.2606 C   0  0  0  0  0  4           0  0  0
    4.1696   -1.2033    2.2607 C   0  0  0  0  0  4           0  0  0
    5.4945   -1.2904   -0.3759 C   0  0  0  0  0  4           0  0  0
    5.6918   -1.2106    2.1369 C   0  0  0  0  0  4           0  0  0
    6.1514   -1.9011    0.8573 C   0  0  0  0  0  4           0  0  0
  1  9  1  0     0  0
  1 19  1  0     0  0
  2  6  2  0     0  0
  3 10  1  0     0  0
  3 20  1  0     0  0
  4 10  2  0     0  0
  4 11  1  0     0  0
  5 11  2  0     0  0
  5 12  1  0     0  0
  6 13  1  0     0  0
  7 11  1  0     0  0
  7 14  1  0     0  0
  8 12  1  0     0  0
  9 15  2  0     0  0
  9 16  1  0     0  0
 10 13  1  0     0  0
 12 13  2  0     0  0
 14 15  1  0     0  0
 14 17  2  0     0  0
 16 18  2  0     0  0
 17 18  1  0     0  0
 20 21  1  0     0  0
 21 22  1  0     0  0
 21 23  1  0     0  0
 22 24  1  0     0  0
 23 25  1  0     0  0
 24 26  1  0     0  0
 25 26  1  0     0  0
M  END
> <Compound >
7

> <standard_type>
pIC50

> <# Confs.>
25

> <canonical_smiles>
NC1=C(N=O)C(OCC2CCCCC2)=NC(NC3=CC=CC(SC)=C3)=N1

> <standard_relation>
=

> <predicted_activity_value>
5.9899545873639015

> <actual_activity_value>
6.3979400086720375

> <Publication ID>
nan

> <standard_units>
nM

> hash
10733327821956238231

$$$$
6
XXILIB    08252103513D 0   0.00000     0.00000

 26 28  0     1  0            999 V2000
   -6.5610    1.4327    5.4661 S   0  0  0  0  0  2           0  0  0
   -0.5282    0.5741   -3.3495 O   0  0  0  0  0  2           0  0  0
    1.3872    0.0000    0.0000 O   0  0  0  0  0  2           0  0  0
   -0.6613   -0.0000    1.1796 N   0  0  0  0  0  3           0  0  0
   -2.7104    0.0132   -0.0234 N   0  0  0  0  0  3           0  0  0
    0.0579    0.0086   -2.4187 N   0  0  0  0  0  3           0  0  0
   -2.7474   -0.0055    2.3276 N   0  0  0  0  0  3           0  0  0
   -2.7860    0.0173   -2.3759 N   0  0  0  0  0  3           0  0  0
   -6.0148    0.6243    3.9824 C   0  0  0  0  0  4           0  0  0
    0.0000    0.0000   -0.0000 C   0  0  0  0  0  4           0  0  0
   -2.0113    0.0020    1.1355 C   0  0  0  0  0  4           0  0  0
   -2.0357    0.0341   -1.2005 C   0  0  0  0  0  4           0  0  0
   -0.6421    0.0020   -1.2343 C   0  0  0  0  0  4           0  0  0
   -4.1272   -0.0054    2.5468 C   0  0  0  0  0  4           0  0  0
   -4.6377    0.6009    3.7089 C   0  0  0  0  0  4           0  0  0
   -6.8956    0.0443    3.0651 C   0  0  0  0  0  4           0  0  0
   -5.0335   -0.5857    1.6497 C   0  0  0  0  0  4           0  0  0
   -6.4053   -0.5596    1.9073 C   0  0  0  0  0  4           0  0  0
   -7.3884    0.0818    6.3519 C   0  0  0  0  0  4           0  0  0
    1.9744    0.0000    1.3013 C   0  0  0  0  0  4           0  0  0
    3.4972    0.0000    1.1785 C   0  0  2  0  0  4           0  0  0
    3.9725    1.2460    0.4184 C   0  0  0  0  0  4           0  0  0
    4.0032   -1.2830    0.4968 C   0  0  0  0  0  4           0  0  0
    5.4875    1.2550    0.2326 C   0  0  0  0  0  4           0  0  0
    5.5183   -1.2655    0.3057 C   0  0  0  0  0  4           0  0  0
    5.9790   -0.0200   -0.4440 C   0  0  0  0  0  4           0  0  0
  1  9  1  0     0  0
  1 19  1  0     0  0
  2  6  2  0     0  0
  3 10  1  0     0  0
  3 20  1  0     0  0
  4 10  2  0     0  0
  4 11  1  0     0  0
  5 11  2  0     0  0
  5 12  1  0     0  0
  6 13  1  0     0  0
  7 11  1  0     0  0
  7 14  1  0     0  0
  8 12  1  0     0  0
  9 15  2  0     0  0
  9 16  1  0     0  0
 10 13  1  0     0  0
 12 13  2  0     0  0
 14 15  1  0     0  0
 14 17  2  0     0  0
 16 18  2  0     0  0
 17 18  1  0     0  0
 20 21  1  0     0  0
 21 22  1  0     0  0
 21 23  1  0     0  0
 22 24  1  0     0  0
 23 25  1  0     0  0
 24 26  1  0     0  0
 25 26  1  0     0  0
M  END
> <Compound >
7

> <standard_type>
pIC50

> <# Confs.>
25

> <canonical_smiles>
NC1=C(N=O)C(OCC2CCCCC2)=NC(NC3=CC=CC(SC)=C3)=N1

> <standard_relation>
=

> <predicted_activity_value>
5.9899545873639015

> <actual_activity_value>
6.3979400086720375

> <Publication ID>
nan

> <standard_units>
nM

> hash
10733327821956238231

$$$$
7
XXILIB    08252103513D 0   0.00000     0.00000

 27 29  0     1  0            999 V2000
    1.3875    0.0000    0.0000 O   0  0  0  0  0  2           0  0  0
   -8.6101   -0.4865    4.7905 O   0  0  0  0  0  2           0  0  0
   -0.4328   -0.4765   -3.4890 O   0  0  0  0  0  2           0  0  0
   -8.9568    0.6616    2.8517 O   0  0  0  0  0  2           0  0  0
   -0.6499    0.0000    1.1864 N   0  0  0  0  0  3           0  0  0
   -2.7122    0.0342    0.0119 N   0  0  0  0  0  3           0  0  0
   -2.6631    0.0365    2.3947 N   0  0  0  0  0  3           0  0  0
   -2.8329    0.0396   -2.3297 N   0  0  0  0  0  3           0  0  0
    0.0000    0.0000    0.0000 C   0  0  0  0  0  4           0  0  0
   -1.9979    0.0227    1.1620 C   0  0  0  0  0  4           0  0  0
   -2.0552    0.0092   -1.1749 C   0  0  0  0  0  4           0  0  0
   -4.0268    0.0602    2.6966 C   0  0  0  0  0  4           0  0  0
   -0.6626    0.0120   -1.2221 C   0  0  0  0  0  4           0  0  0
   -6.7708    0.0625    3.3757 C   0  0  0  0  0  4           0  0  0
   -4.4788   -0.5414    3.8806 C   0  0  0  0  0  4           0  0  0
   -4.9763    0.6628    1.8589 C   0  0  0  0  0  4           0  0  0
   -5.8353   -0.5432    4.2191 C   0  0  0  0  0  4           0  0  0
   -6.3360    0.6650    2.1916 C   0  0  0  0  0  4           0  0  0
   -8.1898    0.0333    3.7707 C   0  0  0  0  0  4           0  0  0
    0.0530    0.0406   -2.4924 C   0  0  0  0  0  4           0  0  0
    1.9722    0.0000    1.3021 C   0  0  0  0  0  4           0  0  0
    3.4954    0.0000    1.1835 C   0  0  2  0  0  4           0  0  0
    4.0002   -1.2392    0.4266 C   0  0  0  0  0  4           0  0  0
    4.1676    0.0941    2.5630 C   0  0  0  0  0  4           0  0  0
    5.5231   -1.2470    0.3124 C   0  0  0  0  0  4           0  0  0
    5.6910    0.0850    2.4481 C   0  0  0  0  0  4           0  0  0
    6.1886   -1.1358    1.6804 C   0  0  0  0  0  4           0  0  0
  1  9  1  0     0  0
  1 21  1  0     0  0
  2 19  2  0     0  0
  3 20  2  0     0  0
  4 19  1  0     0  0
  5  9  2  0     0  0
  5 10  1  0     0  0
  6 10  2  0     0  0
  6 11  1  0     0  0
  7 10  1  0     0  0
  7 12  1  0     0  0
  8 11  1  0     0  0
  9 13  1  0     0  0
 11 13  2  0     0  0
 12 15  2  0     0  0
 12 16  1  0     0  0
 13 20  1  0     0  0
 14 17  2  0     0  0
 14 18  1  0     0  0
 14 19  1  0     0  0
 15 17  1  0     0  0
 16 18  2  0     0  0
 21 22  1  0     0  0
 22 23  1  0     0  0
 22 24  1  0     0  0
 23 25  1  0     0  0
 24 26  1  0     0  0
 25 27  1  0     0  0
 26 27  1  0     0  0
M  END
> <Compound >
8

> <standard_type>
pIC50

> <# Confs.>
25

> <canonical_smiles>
NC1=C(C([H])=O)C(OCC2CCCCC2)=NC(NC3=CC=C(C(O)=O)C=C3)=N1

> <standard_relation>
=

> <predicted_activity_value>
6.3810110796350665

> <actual_activity_value>
6.214670164989233

> <Publication ID>
nan

> <standard_units>
nM

> hash
15825024621968746168

$$$$
7
XXILIB    08252103513D 0   0.00000     0.00000

 27 29  0     1  0            999 V2000
    1.3875    0.0000    0.0000 O   0  0  0  0  0  2           0  0  0
   -8.6101   -0.4865    4.7905 O   0  0  0  0  0  2           0  0  0
   -0.4328   -0.4765   -3.4890 O   0  0  0  0  0  2           0  0  0
   -8.9568    0.6616    2.8517 O   0  0  0  0  0  2           0  0  0
   -0.6499    0.0000    1.1864 N   0  0  0  0  0  3           0  0  0
   -2.7122    0.0342    0.0119 N   0  0  0  0  0  3           0  0  0
   -2.6631    0.0365    2.3947 N   0  0  0  0  0  3           0  0  0
   -2.8329    0.0396   -2.3297 N   0  0  0  0  0  3           0  0  0
    0.0000    0.0000    0.0000 C   0  0  0  0  0  4           0  0  0
   -1.9979    0.0227    1.1620 C   0  0  0  0  0  4           0  0  0
   -2.0552    0.0092   -1.1749 C   0  0  0  0  0  4           0  0  0
   -4.0268    0.0602    2.6966 C   0  0  0  0  0  4           0  0  0
   -0.6626    0.0120   -1.2221 C   0  0  0  0  0  4           0  0  0
   -6.7708    0.0625    3.3757 C   0  0  0  0  0  4           0  0  0
   -4.4788   -0.5414    3.8806 C   0  0  0  0  0  4           0  0  0
   -4.9763    0.6628    1.8589 C   0  0  0  0  0  4           0  0  0
   -5.8353   -0.5432    4.2191 C   0  0  0  0  0  4           0  0  0
   -6.3360    0.6650    2.1916 C   0  0  0  0  0  4           0  0  0
   -8.1898    0.0333    3.7707 C   0  0  0  0  0  4           0  0  0
    0.0530    0.0406   -2.4924 C   0  0  0  0  0  4           0  0  0
    1.9722    0.0000    1.3021 C   0  0  0  0  0  4           0  0  0
    3.4954    0.0000    1.1835 C   0  0  2  0  0  4           0  0  0
    4.0002    1.2392    0.4266 C   0  0  0  0  0  4           0  0  0
    4.0077   -1.2833    0.5094 C   0  0  0  0  0  4           0  0  0
    5.5220    1.2392    0.2990 C   0  0  0  0  0  4           0  0  0
    5.5300   -1.2820    0.3811 C   0  0  0  0  0  4           0  0  0
    6.0302   -0.0423   -0.3539 C   0  0  0  0  0  4           0  0  0
  1  9  1  0     0  0
  1 21  1  0     0  0
  2 19  2  0     0  0
  3 20  2  0     0  0
  4 19  1  0     0  0
  5  9  2  0     0  0
  5 10  1  0     0  0
  6 10  2  0     0  0
  6 11  1  0     0  0
  7 10  1  0     0  0
  7 12  1  0     0  0
  8 11  1  0     0  0
  9 13  1  0     0  0
 11 13  2  0     0  0
 12 15  2  0     0  0
 12 16  1  0     0  0
 13 20  1  0     0  0
 14 17  2  0     0  0
 14 18  1  0     0  0
 14 19  1  0     0  0
 15 17  1  0     0  0
 16 18  2  0     0  0
 21 22  1  0     0  0
 22 23  1  0     0  0
 22 24  1  0     0  0
 23 25  1  0     0  0
 24 26  1  0     0  0
 25 27  1  0     0  0
 26 27  1  0     0  0
M  END
> <Compound >
8

> <standard_type>
pIC50

> <# Confs.>
25

> <canonical_smiles>
NC1=C(C([H])=O)C(OCC2CCCCC2)=NC(NC3=CC=C(C(O)=O)C=C3)=N1

> <standard_relation>
=

> <predicted_activity_value>
6.3810110796350665

> <actual_activity_value>
6.214670164989233

> <Publication ID>
nan

> <standard_units>
nM

> hash
15825024621968746168

$$$$
7
XXILIB    08252103513D 0   0.00000     0.00000

 27 29  0     1  0            999 V2000
    1.3875    0.0000    0.0000 O   0  0  0  0  0  2           0  0  0
   -8.6101   -0.4865    4.7905 O   0  0  0  0  0  2           0  0  0
   -0.4328   -0.4765   -3.4890 O   0  0  0  0  0  2           0  0  0
   -8.9568    0.6616    2.8517 O   0  0  0  0  0  2           0  0  0
   -0.6499    0.0000    1.1864 N   0  0  0  0  0  3           0  0  0
   -2.7122    0.0342    0.0119 N   0  0  0  0  0  3           0  0  0
   -2.6631    0.0365    2.3947 N   0  0  0  0  0  3           0  0  0
   -2.8329    0.0396   -2.3297 N   0  0  0  0  0  3           0  0  0
    0.0000    0.0000    0.0000 C   0  0  0  0  0  4           0  0  0
   -1.9979    0.0227    1.1620 C   0  0  0  0  0  4           0  0  0
   -2.0552    0.0092   -1.1749 C   0  0  0  0  0  4           0  0  0
   -4.0268    0.0602    2.6966 C   0  0  0  0  0  4           0  0  0
   -0.6626    0.0120   -1.2221 C   0  0  0  0  0  4           0  0  0
   -6.7708    0.0625    3.3757 C   0  0  0  0  0  4           0  0  0
   -4.4788   -0.5414    3.8806 C   0  0  0  0  0  4           0  0  0
   -4.9763    0.6628    1.8589 C   0  0  0  0  0  4           0  0  0
   -5.8353   -0.5432    4.2191 C   0  0  0  0  0  4           0  0  0
   -6.3360    0.6650    2.1916 C   0  0  0  0  0  4           0  0  0
   -8.1898    0.0333    3.7707 C   0  0  0  0  0  4           0  0  0
    0.0530    0.0406   -2.4924 C   0  0  0  0  0  4           0  0  0
    1.9722    0.0000    1.3021 C   0  0  0  0  0  4           0  0  0
    3.4954    0.0000    1.1835 C   0  0  2  0  0  4           0  0  0
    4.1669    0.0000    2.5664 C   0  0  0  0  0  4           0  0  0
    3.9950    1.1893    0.3469 C   0  0  0  0  0  4           0  0  0
    5.6898    0.0077    2.4523 C   0  0  0  0  0  4           0  0  0
    5.5185    1.1970    0.2342 C   0  0  0  0  0  4           0  0  0
    6.1829    1.1781    1.6074 C   0  0  0  0  0  4           0  0  0
  1  9  1  0     0  0
  1 21  1  0     0  0
  2 19  2  0     0  0
  3 20  2  0     0  0
  4 19  1  0     0  0
  5  9  2  0     0  0
  5 10  1  0     0  0
  6 10  2  0     0  0
  6 11  1  0     0  0
  7 10  1  0     0  0
  7 12  1  0     0  0
  8 11  1  0     0  0
  9 13  1  0     0  0
 11 13  2  0     0  0
 12 15  2  0     0  0
 12 16  1  0     0  0
 13 20  1  0     0  0
 14 17  2  0     0  0
 14 18  1  0     0  0
 14 19  1  0     0  0
 15 17  1  0     0  0
 16 18  2  0     0  0
 21 22  1  0     0  0
 22 23  1  0     0  0
 22 24  1  0     0  0
 23 25  1  0     0  0
 24 26  1  0     0  0
 25 27  1  0     0  0
 26 27  1  0     0  0
M  END
> <Compound >
8

> <standard_type>
pIC50

> <# Confs.>
25

> <canonical_smiles>
NC1=C(C([H])=O)C(OCC2CCCCC2)=NC(NC3=CC=C(C(O)=O)C=C3)=N1

> <standard_relation>
=

> <predicted_activity_value>
6.3810110796350665

> <actual_activity_value>
6.214670164989233

> <Publication ID>
nan

> <standard_units>
nM

> hash
15825024621968746168

$$$$
7
XXILIB    08252103513D 0   0.00000     0.00000

 27 29  0     1  0            999 V2000
    1.3875    0.0000    0.0000 O   0  0  0  0  0  2           0  0  0
   -1.3956    0.6569    8.6708 O   0  0  0  0  0  2           0  0  0
   -0.4328   -0.4765   -3.4890 O   0  0  0  0  0  2           0  0  0
    0.4044   -0.5214    7.9164 O   0  0  0  0  0  2           0  0  0
   -0.6499    0.0000    1.1864 N   0  0  0  0  0  3           0  0  0
   -2.7122    0.0342    0.0119 N   0  0  0  0  0  3           0  0  0
   -2.6631    0.0365    2.3947 N   0  0  0  0  0  3           0  0  0
   -2.8329    0.0396   -2.3297 N   0  0  0  0  0  3           0  0  0
    0.0000    0.0000    0.0000 C   0  0  0  0  0  4           0  0  0
   -1.9979    0.0227    1.1620 C   0  0  0  0  0  4           0  0  0
   -2.0552    0.0092   -1.1749 C   0  0  0  0  0  4           0  0  0
   -2.1670    0.0309    3.7005 C   0  0  0  0  0  4           0  0  0
   -0.6626    0.0120   -1.2221 C   0  0  0  0  0  4           0  0  0
   -1.2280    0.0661    6.3666 C   0  0  0  0  0  4           0  0  0
   -2.9027    0.6572    4.7177 C   0  0  0  0  0  4           0  0  0
   -0.9512   -0.5773    4.0449 C   0  0  0  0  0  4           0  0  0
   -2.4409    0.6776    6.0371 C   0  0  0  0  0  4           0  0  0
   -0.4828   -0.5609    5.3639 C   0  0  0  0  0  4           0  0  0
   -0.7789    0.1156    7.7689 C   0  0  0  0  0  4           0  0  0
    0.0530    0.0406   -2.4924 C   0  0  0  0  0  4           0  0  0
    1.9722    0.0000    1.3021 C   0  0  0  0  0  4           0  0  0
    3.4954    0.0000    1.1835 C   0  0  2  0  0  4           0  0  0
    4.0002   -1.2392    0.4266 C   0  0  0  0  0  4           0  0  0
    4.1676    0.0941    2.5630 C   0  0  0  0  0  4           0  0  0
    5.5231   -1.2470    0.3124 C   0  0  0  0  0  4           0  0  0
    5.6910    0.0850    2.4481 C   0  0  0  0  0  4           0  0  0
    6.1886   -1.1358    1.6804 C   0  0  0  0  0  4           0  0  0
  1  9  1  0     0  0
  1 21  1  0     0  0
  2 19  2  0     0  0
  3 20  2  0     0  0
  4 19  1  0     0  0
  5  9  2  0     0  0
  5 10  1  0     0  0
  6 10  2  0     0  0
  6 11  1  0     0  0
  7 10  1  0     0  0
  7 12  1  0     0  0
  8 11  1  0     0  0
  9 13  1  0     0  0
 11 13  2  0     0  0
 12 15  2  0     0  0
 12 16  1  0     0  0
 13 20  1  0     0  0
 14 17  2  0     0  0
 14 18  1  0     0  0
 14 19  1  0     0  0
 15 17  1  0     0  0
 16 18  2  0     0  0
 21 22  1  0     0  0
 22 23  1  0     0  0
 22 24  1  0     0  0
 23 25  1  0     0  0
 24 26  1  0     0  0
 25 27  1  0     0  0
 26 27  1  0     0  0
M  END
> <Compound >
8

> <standard_type>
pIC50

> <# Confs.>
25

> <canonical_smiles>
NC1=C(C([H])=O)C(OCC2CCCCC2)=NC(NC3=CC=C(C(O)=O)C=C3)=N1

> <standard_relation>
=

> <predicted_activity_value>
6.3810110796350665

> <actual_activity_value>
6.214670164989233

> <Publication ID>
nan

> <standard_units>
nM

> hash
15825024621968746168

$$$$
7
XXILIB    08252103513D 0   0.00000     0.00000

 27 29  0     1  0            999 V2000
    1.3875    0.0000    0.0000 O   0  0  0  0  0  2           0  0  0
   -8.5858    0.7409    4.8043 O   0  0  0  0  0  2           0  0  0
   -0.4328   -0.4765   -3.4890 O   0  0  0  0  0  2           0  0  0
   -8.9726   -0.3896    2.8627 O   0  0  0  0  0  2           0  0  0
   -0.6499    0.0000    1.1864 N   0  0  0  0  0  3           0  0  0
   -2.7122    0.0342    0.0119 N   0  0  0  0  0  3           0  0  0
   -2.6631    0.0365    2.3947 N   0  0  0  0  0  3           0  0  0
   -2.8329    0.0396   -2.3297 N   0  0  0  0  0  3           0  0  0
    0.0000    0.0000    0.0000 C   0  0  0  0  0  4           0  0  0
   -1.9979    0.0227    1.1620 C   0  0  0  0  0  4           0  0  0
   -2.0552    0.0092   -1.1749 C   0  0  0  0  0  4           0  0  0
   -4.0268    0.0602    2.6966 C   0  0  0  0  0  4           0  0  0
   -0.6626    0.0120   -1.2221 C   0  0  0  0  0  4           0  0  0
   -6.7685    0.1458    3.3797 C   0  0  0  0  0  4           0  0  0
   -4.4582    0.6816    3.8780 C   0  0  0  0  0  4           0  0  0
   -4.9957   -0.5180    1.8638 C   0  0  0  0  0  4           0  0  0
   -5.8132    0.7248    4.2197 C   0  0  0  0  0  4           0  0  0
   -6.3540   -0.4783    2.1995 C   0  0  0  0  0  4           0  0  0
   -8.1843    0.2121    3.7815 C   0  0  0  0  0  4           0  0  0
    0.0530    0.0406   -2.4924 C   0  0  0  0  0  4           0  0  0
    1.9722    0.0000    1.3021 C   0  0  0  0  0  4           0  0  0
    3.4954    0.0000    1.1835 C   0  0  2  0  0  4           0  0  0
    4.0002   -1.2392    0.4266 C   0  0  0  0  0  4           0  0  0
    4.1676    0.0941    2.5630 C   0  0  0  0  0  4           0  0  0
    5.5231   -1.2470    0.3124 C   0  0  0  0  0  4           0  0  0
    5.6910    0.0850    2.4481 C   0  0  0  0  0  4           0  0  0
    6.1886   -1.1358    1.6804 C   0  0  0  0  0  4           0  0  0
  1  9  1  0     0  0
  1 21  1  0     0  0
  2 19  2  0     0  0
  3 20  2  0     0  0
  4 19  1  0     0  0
  5  9  2  0     0  0
  5 10  1  0     0  0
  6 10  2  0     0  0
  6 11  1  0     0  0
  7 10  1  0     0  0
  7 12  1  0     0  0
  8 11  1  0     0  0
  9 13  1  0     0  0
 11 13  2  0     0  0
 12 15  2  0     0  0
 12 16  1  0     0  0
 13 20  1  0     0  0
 14 17  2  0     0  0
 14 18  1  0     0  0
 14 19  1  0     0  0
 15 17  1  0     0  0
 16 18  2  0     0  0
 21 22  1  0     0  0
 22 23  1  0     0  0
 22 24  1  0     0  0
 23 25  1  0     0  0
 24 26  1  0     0  0
 25 27  1  0     0  0
 26 27  1  0     0  0
M  END
> <Compound >
8

> <standard_type>
pIC50

> <# Confs.>
25

> <canonical_smiles>
NC1=C(C([H])=O)C(OCC2CCCCC2)=NC(NC3=CC=C(C(O)=O)C=C3)=N1

> <standard_relation>
=

> <predicted_activity_value>
6.3810110796350665

> <actual_activity_value>
6.214670164989233

> <Publication ID>
nan

> <standard_units>
nM

> hash
15825024621968746168

$$$$
7
XXILIB    08252103513D 0   0.00000     0.00000

 27 29  0     1  0            999 V2000
    1.3875    0.0000    0.0000 O   0  0  0  0  0  2           0  0  0
   -8.5858    0.7409    4.8043 O   0  0  0  0  0  2           0  0  0
   -0.4328   -0.4765   -3.4890 O   0  0  0  0  0  2           0  0  0
   -8.9726   -0.3896    2.8627 O   0  0  0  0  0  2           0  0  0
   -0.6499    0.0000    1.1864 N   0  0  0  0  0  3           0  0  0
   -2.7122    0.0342    0.0119 N   0  0  0  0  0  3           0  0  0
   -2.6631    0.0365    2.3947 N   0  0  0  0  0  3           0  0  0
   -2.8329    0.0396   -2.3297 N   0  0  0  0  0  3           0  0  0
    0.0000    0.0000    0.0000 C   0  0  0  0  0  4           0  0  0
   -1.9979    0.0227    1.1620 C   0  0  0  0  0  4           0  0  0
   -2.0552    0.0092   -1.1749 C   0  0  0  0  0  4           0  0  0
   -4.0268    0.0602    2.6966 C   0  0  0  0  0  4           0  0  0
   -0.6626    0.0120   -1.2221 C   0  0  0  0  0  4           0  0  0
   -6.7685    0.1458    3.3797 C   0  0  0  0  0  4           0  0  0
   -4.4582    0.6816    3.8780 C   0  0  0  0  0  4           0  0  0
   -4.9957   -0.5180    1.8638 C   0  0  0  0  0  4           0  0  0
   -5.8132    0.7248    4.2197 C   0  0  0  0  0  4           0  0  0
   -6.3540   -0.4783    2.1995 C   0  0  0  0  0  4           0  0  0
   -8.1843    0.2121    3.7815 C   0  0  0  0  0  4           0  0  0
    0.0530    0.0406   -2.4924 C   0  0  0  0  0  4           0  0  0
    1.9722    0.0000    1.3021 C   0  0  0  0  0  4           0  0  0
    3.4954    0.0000    1.1835 C   0  0  2  0  0  4           0  0  0
    4.0002    1.2392    0.4266 C   0  0  0  0  0  4           0  0  0
    4.0077   -1.2833    0.5094 C   0  0  0  0  0  4           0  0  0
    5.5220    1.2392    0.2990 C   0  0  0  0  0  4           0  0  0
    5.5300   -1.2820    0.3811 C   0  0  0  0  0  4           0  0  0
    6.0302   -0.0423   -0.3539 C   0  0  0  0  0  4           0  0  0
  1  9  1  0     0  0
  1 21  1  0     0  0
  2 19  2  0     0  0
  3 20  2  0     0  0
  4 19  1  0     0  0
  5  9  2  0     0  0
  5 10  1  0     0  0
  6 10  2  0     0  0
  6 11  1  0     0  0
  7 10  1  0     0  0
  7 12  1  0     0  0
  8 11  1  0     0  0
  9 13  1  0     0  0
 11 13  2  0     0  0
 12 15  2  0     0  0
 12 16  1  0     0  0
 13 20  1  0     0  0
 14 17  2  0     0  0
 14 18  1  0     0  0
 14 19  1  0     0  0
 15 17  1  0     0  0
 16 18  2  0     0  0
 21 22  1  0     0  0
 22 23  1  0     0  0
 22 24  1  0     0  0
 23 25  1  0     0  0
 24 26  1  0     0  0
 25 27  1  0     0  0
 26 27  1  0     0  0
M  END
> <Compound >
8

> <standard_type>
pIC50

> <# Confs.>
25

> <canonical_smiles>
NC1=C(C([H])=O)C(OCC2CCCCC2)=NC(NC3=CC=C(C(O)=O)C=C3)=N1

> <standard_relation>
=

> <predicted_activity_value>
6.3810110796350665

> <actual_activity_value>
6.214670164989233

> <Publication ID>
nan

> <standard_units>
nM

> hash
15825024621968746168

$$$$
7
XXILIB    08252103513D 0   0.00000     0.00000

 27 29  0     1  0            999 V2000
    1.3875    0.0000    0.0000 O   0  0  0  0  0  2           0  0  0
   -8.5858    0.7409    4.8043 O   0  0  0  0  0  2           0  0  0
   -0.4328   -0.4765   -3.4890 O   0  0  0  0  0  2           0  0  0
   -8.9726   -0.3896    2.8627 O   0  0  0  0  0  2           0  0  0
   -0.6499    0.0000    1.1864 N   0  0  0  0  0  3           0  0  0
   -2.7122    0.0342    0.0119 N   0  0  0  0  0  3           0  0  0
   -2.6631    0.0365    2.3947 N   0  0  0  0  0  3           0  0  0
   -2.8329    0.0396   -2.3297 N   0  0  0  0  0  3           0  0  0
    0.0000    0.0000    0.0000 C   0  0  0  0  0  4           0  0  0
   -1.9979    0.0227    1.1620 C   0  0  0  0  0  4           0  0  0
   -2.0552    0.0092   -1.1749 C   0  0  0  0  0  4           0  0  0
   -4.0268    0.0602    2.6966 C   0  0  0  0  0  4           0  0  0
   -0.6626    0.0120   -1.2221 C   0  0  0  0  0  4           0  0  0
   -6.7685    0.1458    3.3797 C   0  0  0  0  0  4           0  0  0
   -4.4582    0.6816    3.8780 C   0  0  0  0  0  4           0  0  0
   -4.9957   -0.5180    1.8638 C   0  0  0  0  0  4           0  0  0
   -5.8132    0.7248    4.2197 C   0  0  0  0  0  4           0  0  0
   -6.3540   -0.4783    2.1995 C   0  0  0  0  0  4           0  0  0
   -8.1843    0.2121    3.7815 C   0  0  0  0  0  4           0  0  0
    0.0530    0.0406   -2.4924 C   0  0  0  0  0  4           0  0  0
    1.9722    0.0000    1.3021 C   0  0  0  0  0  4           0  0  0
    3.4954    0.0000    1.1835 C   0  0  2  0  0  4           0  0  0
    4.1669    0.0000    2.5664 C   0  0  0  0  0  4           0  0  0
    3.9950    1.1893    0.3469 C   0  0  0  0  0  4           0  0  0
    5.6898    0.0077    2.4523 C   0  0  0  0  0  4           0  0  0
    5.5185    1.1970    0.2342 C   0  0  0  0  0  4           0  0  0
    6.1829    1.1781    1.6074 C   0  0  0  0  0  4           0  0  0
  1  9  1  0     0  0
  1 21  1  0     0  0
  2 19  2  0     0  0
  3 20  2  0     0  0
  4 19  1  0     0  0
  5  9  2  0     0  0
  5 10  1  0     0  0
  6 10  2  0     0  0
  6 11  1  0     0  0
  7 10  1  0     0  0
  7 12  1  0     0  0
  8 11  1  0     0  0
  9 13  1  0     0  0
 11 13  2  0     0  0
 12 15  2  0     0  0
 12 16  1  0     0  0
 13 20  1  0     0  0
 14 17  2  0     0  0
 14 18  1  0     0  0
 14 19  1  0     0  0
 15 17  1  0     0  0
 16 18  2  0     0  0
 21 22  1  0     0  0
 22 23  1  0     0  0
 22 24  1  0     0  0
 23 25  1  0     0  0
 24 26  1  0     0  0
 25 27  1  0     0  0
 26 27  1  0     0  0
M  END
> <Compound >
8

> <standard_type>
pIC50

> <# Confs.>
25

> <canonical_smiles>
NC1=C(C([H])=O)C(OCC2CCCCC2)=NC(NC3=CC=C(C(O)=O)C=C3)=N1

> <standard_relation>
=

> <predicted_activity_value>
6.3810110796350665

> <actual_activity_value>
6.214670164989233

> <Publication ID>
nan

> <standard_units>
nM

> hash
15825024621968746168

$$$$
7
XXILIB    08252103513D 0   0.00000     0.00000

 27 29  0     1  0            999 V2000
    1.3875    0.0000    0.0000 O   0  0  0  0  0  2           0  0  0
   -1.3956    0.6569    8.6708 O   0  0  0  0  0  2           0  0  0
   -0.4328   -0.4765   -3.4890 O   0  0  0  0  0  2           0  0  0
    0.4044   -0.5214    7.9164 O   0  0  0  0  0  2           0  0  0
   -0.6499    0.0000    1.1864 N   0  0  0  0  0  3           0  0  0
   -2.7122    0.0342    0.0119 N   0  0  0  0  0  3           0  0  0
   -2.6631    0.0365    2.3947 N   0  0  0  0  0  3           0  0  0
   -2.8329    0.0396   -2.3297 N   0  0  0  0  0  3           0  0  0
    0.0000    0.0000    0.0000 C   0  0  0  0  0  4           0  0  0
   -1.9979    0.0227    1.1620 C   0  0  0  0  0  4           0  0  0
   -2.0552    0.0092   -1.1749 C   0  0  0  0  0  4           0  0  0
   -2.1670    0.0309    3.7005 C   0  0  0  0  0  4           0  0  0
   -0.6626    0.0120   -1.2221 C   0  0  0  0  0  4           0  0  0
   -1.2280    0.0661    6.3666 C   0  0  0  0  0  4           0  0  0
   -2.9027    0.6572    4.7177 C   0  0  0  0  0  4           0  0  0
   -0.9512   -0.5773    4.0449 C   0  0  0  0  0  4           0  0  0
   -2.4409    0.6776    6.0371 C   0  0  0  0  0  4           0  0  0
   -0.4828   -0.5609    5.3639 C   0  0  0  0  0  4           0  0  0
   -0.7789    0.1156    7.7689 C   0  0  0  0  0  4           0  0  0
    0.0530    0.0406   -2.4924 C   0  0  0  0  0  4           0  0  0
    1.9722    0.0000    1.3021 C   0  0  0  0  0  4           0  0  0
    3.4954    0.0000    1.1835 C   0  0  2  0  0  4           0  0  0
    4.1669    0.0000    2.5664 C   0  0  0  0  0  4           0  0  0
    3.9950    1.1893    0.3469 C   0  0  0  0  0  4           0  0  0
    5.6898    0.0077    2.4523 C   0  0  0  0  0  4           0  0  0
    5.5185    1.1970    0.2342 C   0  0  0  0  0  4           0  0  0
    6.1829    1.1781    1.6074 C   0  0  0  0  0  4           0  0  0
  1  9  1  0     0  0
  1 21  1  0     0  0
  2 19  2  0     0  0
  3 20  2  0     0  0
  4 19  1  0     0  0
  5  9  2  0     0  0
  5 10  1  0     0  0
  6 10  2  0     0  0
  6 11  1  0     0  0
  7 10  1  0     0  0
  7 12  1  0     0  0
  8 11  1  0     0  0
  9 13  1  0     0  0
 11 13  2  0     0  0
 12 15  2  0     0  0
 12 16  1  0     0  0
 13 20  1  0     0  0
 14 17  2  0     0  0
 14 18  1  0     0  0
 14 19  1  0     0  0
 15 17  1  0     0  0
 16 18  2  0     0  0
 21 22  1  0     0  0
 22 23  1  0     0  0
 22 24  1  0     0  0
 23 25  1  0     0  0
 24 26  1  0     0  0
 25 27  1  0     0  0
 26 27  1  0     0  0
M  END
> <Compound >
8

> <standard_type>
pIC50

> <# Confs.>
25

> <canonical_smiles>
NC1=C(C([H])=O)C(OCC2CCCCC2)=NC(NC3=CC=C(C(O)=O)C=C3)=N1

> <standard_relation>
=

> <predicted_activity_value>
6.3810110796350665

> <actual_activity_value>
6.214670164989233

> <Publication ID>
nan

> <standard_units>
nM

> hash
15825024621968746168

$$$$
7
XXILIB    08252103513D 0   0.00000     0.00000

 27 29  0     1  0            999 V2000
    1.3875    0.0000    0.0000 O   0  0  0  0  0  2           0  0  0
   -1.3956    0.6569    8.6708 O   0  0  0  0  0  2           0  0  0
   -0.4328   -0.4765   -3.4890 O   0  0  0  0  0  2           0  0  0
    0.4044   -0.5214    7.9164 O   0  0  0  0  0  2           0  0  0
   -0.6499    0.0000    1.1864 N   0  0  0  0  0  3           0  0  0
   -2.7122    0.0342    0.0119 N   0  0  0  0  0  3           0  0  0
   -2.6631    0.0365    2.3947 N   0  0  0  0  0  3           0  0  0
   -2.8329    0.0396   -2.3297 N   0  0  0  0  0  3           0  0  0
    0.0000    0.0000    0.0000 C   0  0  0  0  0  4           0  0  0
   -1.9979    0.0227    1.1620 C   0  0  0  0  0  4           0  0  0
   -2.0552    0.0092   -1.1749 C   0  0  0  0  0  4           0  0  0
   -2.1670    0.0309    3.7005 C   0  0  0  0  0  4           0  0  0
   -0.6626    0.0120   -1.2221 C   0  0  0  0  0  4           0  0  0
   -1.2280    0.0661    6.3666 C   0  0  0  0  0  4           0  0  0
   -2.9027    0.6572    4.7177 C   0  0  0  0  0  4           0  0  0
   -0.9512   -0.5773    4.0449 C   0  0  0  0  0  4           0  0  0
   -2.4409    0.6776    6.0371 C   0  0  0  0  0  4           0  0  0
   -0.4828   -0.5609    5.3639 C   0  0  0  0  0  4           0  0  0
   -0.7789    0.1156    7.7689 C   0  0  0  0  0  4           0  0  0
    0.0530    0.0406   -2.4924 C   0  0  0  0  0  4           0  0  0
    1.9722    0.0000    1.3021 C   0  0  0  0  0  4           0  0  0
    3.4954    0.0000    1.1835 C   0  0  2  0  0  4           0  0  0
    4.0002    1.2392    0.4266 C   0  0  0  0  0  4           0  0  0
    4.0077   -1.2833    0.5094 C   0  0  0  0  0  4           0  0  0
    5.5220    1.2392    0.2990 C   0  0  0  0  0  4           0  0  0
    5.5300   -1.2820    0.3811 C   0  0  0  0  0  4           0  0  0
    6.0302   -0.0423   -0.3539 C   0  0  0  0  0  4           0  0  0
  1  9  1  0     0  0
  1 21  1  0     0  0
  2 19  2  0     0  0
  3 20  2  0     0  0
  4 19  1  0     0  0
  5  9  2  0     0  0
  5 10  1  0     0  0
  6 10  2  0     0  0
  6 11  1  0     0  0
  7 10  1  0     0  0
  7 12  1  0     0  0
  8 11  1  0     0  0
  9 13  1  0     0  0
 11 13  2  0     0  0
 12 15  2  0     0  0
 12 16  1  0     0  0
 13 20  1  0     0  0
 14 17  2  0     0  0
 14 18  1  0     0  0
 14 19  1  0     0  0
 15 17  1  0     0  0
 16 18  2  0     0  0
 21 22  1  0     0  0
 22 23  1  0     0  0
 22 24  1  0     0  0
 23 25  1  0     0  0
 24 26  1  0     0  0
 25 27  1  0     0  0
 26 27  1  0     0  0
M  END
> <Compound >
8

> <standard_type>
pIC50

> <# Confs.>
25

> <canonical_smiles>
NC1=C(C([H])=O)C(OCC2CCCCC2)=NC(NC3=CC=C(C(O)=O)C=C3)=N1

> <standard_relation>
=

> <predicted_activity_value>
6.3810110796350665

> <actual_activity_value>
6.214670164989233

> <Publication ID>
nan

> <standard_units>
nM

> hash
15825024621968746168

$$$$
7
XXILIB    08252103513D 0   0.00000     0.00000

 27 29  0     1  0            999 V2000
    1.3875    0.0000    0.0000 O   0  0  0  0  0  2           0  0  0
   -1.4320   -0.5703    8.6793 O   0  0  0  0  0  2           0  0  0
   -0.4328   -0.4765   -3.4890 O   0  0  0  0  0  2           0  0  0
    0.4137    0.5299    7.9174 O   0  0  0  0  0  2           0  0  0
   -0.6499    0.0000    1.1864 N   0  0  0  0  0  3           0  0  0
   -2.7122    0.0342    0.0119 N   0  0  0  0  0  3           0  0  0
   -2.6631    0.0365    2.3947 N   0  0  0  0  0  3           0  0  0
   -2.8329    0.0396   -2.3297 N   0  0  0  0  0  3           0  0  0
    0.0000    0.0000    0.0000 C   0  0  0  0  0  4           0  0  0
   -1.9979    0.0227    1.1620 C   0  0  0  0  0  4           0  0  0
   -2.0552    0.0092   -1.1749 C   0  0  0  0  0  4           0  0  0
   -2.1670    0.0309    3.7005 C   0  0  0  0  0  4           0  0  0
   -0.6626    0.0120   -1.2221 C   0  0  0  0  0  4           0  0  0
   -1.2334   -0.0171    6.3683 C   0  0  0  0  0  4           0  0  0
   -2.9233   -0.5658    4.7203 C   0  0  0  0  0  4           0  0  0
   -0.9336    0.6036    4.0433 C   0  0  0  0  0  4           0  0  0
   -2.4654   -0.5903    6.0410 C   0  0  0  0  0  4           0  0  0
   -0.4688    0.5825    5.3634 C   0  0  0  0  0  4           0  0  0
   -0.7926   -0.0631    7.7733 C   0  0  0  0  0  4           0  0  0
    0.0530    0.0406   -2.4924 C   0  0  0  0  0  4           0  0  0
    1.9722    0.0000    1.3021 C   0  0  0  0  0  4           0  0  0
    3.4954    0.0000    1.1835 C   0  0  2  0  0  4           0  0  0
    4.0002   -1.2392    0.4266 C   0  0  0  0  0  4           0  0  0
    4.1676    0.0941    2.5630 C   0  0  0  0  0  4           0  0  0
    5.5231   -1.2470    0.3124 C   0  0  0  0  0  4           0  0  0
    5.6910    0.0850    2.4481 C   0  0  0  0  0  4           0  0  0
    6.1886   -1.1358    1.6804 C   0  0  0  0  0  4           0  0  0
  1  9  1  0     0  0
  1 21  1  0     0  0
  2 19  2  0     0  0
  3 20  2  0     0  0
  4 19  1  0     0  0
  5  9  2  0     0  0
  5 10  1  0     0  0
  6 10  2  0     0  0
  6 11  1  0     0  0
  7 10  1  0     0  0
  7 12  1  0     0  0
  8 11  1  0     0  0
  9 13  1  0     0  0
 11 13  2  0     0  0
 12 15  2  0     0  0
 12 16  1  0     0  0
 13 20  1  0     0  0
 14 17  2  0     0  0
 14 18  1  0     0  0
 14 19  1  0     0  0
 15 17  1  0     0  0
 16 18  2  0     0  0
 21 22  1  0     0  0
 22 23  1  0     0  0
 22 24  1  0     0  0
 23 25  1  0     0  0
 24 26  1  0     0  0
 25 27  1  0     0  0
 26 27  1  0     0  0
M  END
> <Compound >
8

> <standard_type>
pIC50

> <# Confs.>
25

> <canonical_smiles>
NC1=C(C([H])=O)C(OCC2CCCCC2)=NC(NC3=CC=C(C(O)=O)C=C3)=N1

> <standard_relation>
=

> <predicted_activity_value>
6.3810110796350665

> <actual_activity_value>
6.214670164989233

> <Publication ID>
nan

> <standard_units>
nM

> hash
15825024621968746168

$$$$
7
XXILIB    08252103513D 0   0.00000     0.00000

 27 29  0     1  0            999 V2000
    1.3875    0.0000    0.0000 O   0  0  0  0  0  2           0  0  0
   -1.4320   -0.5703    8.6793 O   0  0  0  0  0  2           0  0  0
   -0.4328   -0.4765   -3.4890 O   0  0  0  0  0  2           0  0  0
    0.4137    0.5299    7.9174 O   0  0  0  0  0  2           0  0  0
   -0.6499    0.0000    1.1864 N   0  0  0  0  0  3           0  0  0
   -2.7122    0.0342    0.0119 N   0  0  0  0  0  3           0  0  0
   -2.6631    0.0365    2.3947 N   0  0  0  0  0  3           0  0  0
   -2.8329    0.0396   -2.3297 N   0  0  0  0  0  3           0  0  0
    0.0000    0.0000    0.0000 C   0  0  0  0  0  4           0  0  0
   -1.9979    0.0227    1.1620 C   0  0  0  0  0  4           0  0  0
   -2.0552    0.0092   -1.1749 C   0  0  0  0  0  4           0  0  0
   -2.1670    0.0309    3.7005 C   0  0  0  0  0  4           0  0  0
   -0.6626    0.0120   -1.2221 C   0  0  0  0  0  4           0  0  0
   -1.2334   -0.0171    6.3683 C   0  0  0  0  0  4           0  0  0
   -2.9233   -0.5658    4.7203 C   0  0  0  0  0  4           0  0  0
   -0.9336    0.6036    4.0433 C   0  0  0  0  0  4           0  0  0
   -2.4654   -0.5903    6.0410 C   0  0  0  0  0  4           0  0  0
   -0.4688    0.5825    5.3634 C   0  0  0  0  0  4           0  0  0
   -0.7926   -0.0631    7.7733 C   0  0  0  0  0  4           0  0  0
    0.0530    0.0406   -2.4924 C   0  0  0  0  0  4           0  0  0
    1.9722    0.0000    1.3021 C   0  0  0  0  0  4           0  0  0
    3.4954    0.0000    1.1835 C   0  0  2  0  0  4           0  0  0
    4.1669    0.0000    2.5664 C   0  0  0  0  0  4           0  0  0
    3.9950    1.1893    0.3469 C   0  0  0  0  0  4           0  0  0
    5.6898    0.0077    2.4523 C   0  0  0  0  0  4           0  0  0
    5.5185    1.1970    0.2342 C   0  0  0  0  0  4           0  0  0
    6.1829    1.1781    1.6074 C   0  0  0  0  0  4           0  0  0
  1  9  1  0     0  0
  1 21  1  0     0  0
  2 19  2  0     0  0
  3 20  2  0     0  0
  4 19  1  0     0  0
  5  9  2  0     0  0
  5 10  1  0     0  0
  6 10  2  0     0  0
  6 11  1  0     0  0
  7 10  1  0     0  0
  7 12  1  0     0  0
  8 11  1  0     0  0
  9 13  1  0     0  0
 11 13  2  0     0  0
 12 15  2  0     0  0
 12 16  1  0     0  0
 13 20  1  0     0  0
 14 17  2  0     0  0
 14 18  1  0     0  0
 14 19  1  0     0  0
 15 17  1  0     0  0
 16 18  2  0     0  0
 21 22  1  0     0  0
 22 23  1  0     0  0
 22 24  1  0     0  0
 23 25  1  0     0  0
 24 26  1  0     0  0
 25 27  1  0     0  0
 26 27  1  0     0  0
M  END
> <Compound >
8

> <standard_type>
pIC50

> <# Confs.>
25

> <canonical_smiles>
NC1=C(C([H])=O)C(OCC2CCCCC2)=NC(NC3=CC=C(C(O)=O)C=C3)=N1

> <standard_relation>
=

> <predicted_activity_value>
6.3810110796350665

> <actual_activity_value>
6.214670164989233

> <Publication ID>
nan

> <standard_units>
nM

> hash
15825024621968746168

$$$$
7
XXILIB    08252103513D 0   0.00000     0.00000

 27 29  0     1  0            999 V2000
    1.3875    0.0000    0.0000 O   0  0  0  0  0  2           0  0  0
   -1.4320   -0.5703    8.6793 O   0  0  0  0  0  2           0  0  0
   -0.4328   -0.4765   -3.4890 O   0  0  0  0  0  2           0  0  0
    0.4137    0.5299    7.9174 O   0  0  0  0  0  2           0  0  0
   -0.6499    0.0000    1.1864 N   0  0  0  0  0  3           0  0  0
   -2.7122    0.0342    0.0119 N   0  0  0  0  0  3           0  0  0
   -2.6631    0.0365    2.3947 N   0  0  0  0  0  3           0  0  0
   -2.8329    0.0396   -2.3297 N   0  0  0  0  0  3           0  0  0
    0.0000    0.0000    0.0000 C   0  0  0  0  0  4           0  0  0
   -1.9979    0.0227    1.1620 C   0  0  0  0  0  4           0  0  0
   -2.0552    0.0092   -1.1749 C   0  0  0  0  0  4           0  0  0
   -2.1670    0.0309    3.7005 C   0  0  0  0  0  4           0  0  0
   -0.6626    0.0120   -1.2221 C   0  0  0  0  0  4           0  0  0
   -1.2334   -0.0171    6.3683 C   0  0  0  0  0  4           0  0  0
   -2.9233   -0.5658    4.7203 C   0  0  0  0  0  4           0  0  0
   -0.9336    0.6036    4.0433 C   0  0  0  0  0  4           0  0  0
   -2.4654   -0.5903    6.0410 C   0  0  0  0  0  4           0  0  0
   -0.4688    0.5825    5.3634 C   0  0  0  0  0  4           0  0  0
   -0.7926   -0.0631    7.7733 C   0  0  0  0  0  4           0  0  0
    0.0530    0.0406   -2.4924 C   0  0  0  0  0  4           0  0  0
    1.9722    0.0000    1.3021 C   0  0  0  0  0  4           0  0  0
    3.4954    0.0000    1.1835 C   0  0  2  0  0  4           0  0  0
    4.0002    1.2392    0.4266 C   0  0  0  0  0  4           0  0  0
    4.0077   -1.2833    0.5094 C   0  0  0  0  0  4           0  0  0
    5.5220    1.2392    0.2990 C   0  0  0  0  0  4           0  0  0
    5.5300   -1.2820    0.3811 C   0  0  0  0  0  4           0  0  0
    6.0302   -0.0423   -0.3539 C   0  0  0  0  0  4           0  0  0
  1  9  1  0     0  0
  1 21  1  0     0  0
  2 19  2  0     0  0
  3 20  2  0     0  0
  4 19  1  0     0  0
  5  9  2  0     0  0
  5 10  1  0     0  0
  6 10  2  0     0  0
  6 11  1  0     0  0
  7 10  1  0     0  0
  7 12  1  0     0  0
  8 11  1  0     0  0
  9 13  1  0     0  0
 11 13  2  0     0  0
 12 15  2  0     0  0
 12 16  1  0     0  0
 13 20  1  0     0  0
 14 17  2  0     0  0
 14 18  1  0     0  0
 14 19  1  0     0  0
 15 17  1  0     0  0
 16 18  2  0     0  0
 21 22  1  0     0  0
 22 23  1  0     0  0
 22 24  1  0     0  0
 23 25  1  0     0  0
 24 26  1  0     0  0
 25 27  1  0     0  0
 26 27  1  0     0  0
M  END
> <Compound >
8

> <standard_type>
pIC50

> <# Confs.>
25

> <canonical_smiles>
NC1=C(C([H])=O)C(OCC2CCCCC2)=NC(NC3=CC=C(C(O)=O)C=C3)=N1

> <standard_relation>
=

> <predicted_activity_value>
6.3810110796350665

> <actual_activity_value>
6.214670164989233

> <Publication ID>
nan

> <standard_units>
nM

> hash
15825024621968746168

$$$$
7
XXILIB    08252103513D 0   0.00000     0.00000

 27 29  0     1  0            999 V2000
    1.3875    0.0000    0.0000 O   0  0  0  0  0  2           0  0  0
   -1.3956    0.6569    8.6708 O   0  0  0  0  0  2           0  0  0
   -0.4328   -0.4765   -3.4890 O   0  0  0  0  0  2           0  0  0
    0.4044   -0.5214    7.9164 O   0  0  0  0  0  2           0  0  0
   -0.6499    0.0000    1.1864 N   0  0  0  0  0  3           0  0  0
   -2.7122    0.0342    0.0119 N   0  0  0  0  0  3           0  0  0
   -2.6631    0.0365    2.3947 N   0  0  0  0  0  3           0  0  0
   -2.8329    0.0396   -2.3297 N   0  0  0  0  0  3           0  0  0
    0.0000    0.0000    0.0000 C   0  0  0  0  0  4           0  0  0
   -1.9979    0.0227    1.1620 C   0  0  0  0  0  4           0  0  0
   -2.0552    0.0092   -1.1749 C   0  0  0  0  0  4           0  0  0
   -2.1670    0.0309    3.7005 C   0  0  0  0  0  4           0  0  0
   -0.6626    0.0120   -1.2221 C   0  0  0  0  0  4           0  0  0
   -1.2280    0.0661    6.3666 C   0  0  0  0  0  4           0  0  0
   -2.9027    0.6572    4.7177 C   0  0  0  0  0  4           0  0  0
   -0.9512   -0.5773    4.0449 C   0  0  0  0  0  4           0  0  0
   -2.4409    0.6776    6.0371 C   0  0  0  0  0  4           0  0  0
   -0.4828   -0.5609    5.3639 C   0  0  0  0  0  4           0  0  0
   -0.7789    0.1156    7.7689 C   0  0  0  0  0  4           0  0  0
    0.0530    0.0406   -2.4924 C   0  0  0  0  0  4           0  0  0
    1.9722    0.0000    1.3021 C   0  0  0  0  0  4           0  0  0
    3.4954    0.0000    1.1835 C   0  0  2  0  0  4           0  0  0
    4.1636   -0.0000    2.5664 C   0  0  0  0  0  4           0  0  0
    4.0207   -1.1718    0.3347 C   0  0  0  0  0  4           0  0  0
    4.0455   -1.3447    3.2818 C   0  0  0  0  0  4           0  0  0
    3.9094   -2.5192    1.0464 C   0  0  0  0  0  4           0  0  0
    4.5734   -2.4873    2.4197 C   0  0  0  0  0  4           0  0  0
  1  9  1  0     0  0
  1 21  1  0     0  0
  2 19  2  0     0  0
  3 20  2  0     0  0
  4 19  1  0     0  0
  5  9  2  0     0  0
  5 10  1  0     0  0
  6 10  2  0     0  0
  6 11  1  0     0  0
  7 10  1  0     0  0
  7 12  1  0     0  0
  8 11  1  0     0  0
  9 13  1  0     0  0
 11 13  2  0     0  0
 12 15  2  0     0  0
 12 16  1  0     0  0
 13 20  1  0     0  0
 14 17  2  0     0  0
 14 18  1  0     0  0
 14 19  1  0     0  0
 15 17  1  0     0  0
 16 18  2  0     0  0
 21 22  1  0     0  0
 22 23  1  0     0  0
 22 24  1  0     0  0
 23 25  1  0     0  0
 24 26  1  0     0  0
 25 27  1  0     0  0
 26 27  1  0     0  0
M  END
> <Compound >
8

> <standard_type>
pIC50

> <# Confs.>
25

> <canonical_smiles>
NC1=C(C([H])=O)C(OCC2CCCCC2)=NC(NC3=CC=C(C(O)=O)C=C3)=N1

> <standard_relation>
=

> <predicted_activity_value>
6.3810110796350665

> <actual_activity_value>
6.214670164989233

> <Publication ID>
nan

> <standard_units>
nM

> hash
15825024621968746168

$$$$
7
XXILIB    08252103513D 0   0.00000     0.00000

 27 29  0     1  0            999 V2000
    1.3875    0.0000    0.0000 O   0  0  0  0  0  2           0  0  0
   -9.0960    0.5258    3.1202 O   0  0  0  0  0  2           0  0  0
   -0.4328   -0.4765   -3.4890 O   0  0  0  0  0  2           0  0  0
   -8.3471   -0.6141    4.9471 O   0  0  0  0  0  2           0  0  0
   -0.6499    0.0000    1.1864 N   0  0  0  0  0  3           0  0  0
   -2.7122    0.0342    0.0119 N   0  0  0  0  0  3           0  0  0
   -2.6631    0.0365    2.3947 N   0  0  0  0  0  3           0  0  0
   -2.8329    0.0396   -2.3297 N   0  0  0  0  0  3           0  0  0
    0.0000    0.0000    0.0000 C   0  0  0  0  0  4           0  0  0
   -1.9979    0.0227    1.1620 C   0  0  0  0  0  4           0  0  0
   -2.0552    0.0092   -1.1749 C   0  0  0  0  0  4           0  0  0
   -4.0268    0.0602    2.6966 C   0  0  0  0  0  4           0  0  0
   -0.6626    0.0120   -1.2221 C   0  0  0  0  0  4           0  0  0
   -6.7708    0.0625    3.3757 C   0  0  0  0  0  4           0  0  0
   -4.4788   -0.5414    3.8806 C   0  0  0  0  0  4           0  0  0
   -4.9763    0.6628    1.8589 C   0  0  0  0  0  4           0  0  0
   -5.8353   -0.5432    4.2191 C   0  0  0  0  0  4           0  0  0
   -6.3360    0.6650    2.1916 C   0  0  0  0  0  4           0  0  0
   -8.1898    0.0333    3.7707 C   0  0  0  0  0  4           0  0  0
    0.0530    0.0406   -2.4924 C   0  0  0  0  0  4           0  0  0
    1.9722    0.0000    1.3021 C   0  0  0  0  0  4           0  0  0
    3.4954    0.0000    1.1835 C   0  0  2  0  0  4           0  0  0
    4.0002   -1.2392    0.4266 C   0  0  0  0  0  4           0  0  0
    4.1676    0.0941    2.5630 C   0  0  0  0  0  4           0  0  0
    5.5231   -1.2470    0.3124 C   0  0  0  0  0  4           0  0  0
    5.6910    0.0850    2.4481 C   0  0  0  0  0  4           0  0  0
    6.1886   -1.1358    1.6804 C   0  0  0  0  0  4           0  0  0
  1  9  1  0     0  0
  1 21  1  0     0  0
  2 19  2  0     0  0
  3 20  2  0     0  0
  4 19  1  0     0  0
  5  9  2  0     0  0
  5 10  1  0     0  0
  6 10  2  0     0  0
  6 11  1  0     0  0
  7 10  1  0     0  0
  7 12  1  0     0  0
  8 11  1  0     0  0
  9 13  1  0     0  0
 11 13  2  0     0  0
 12 15  2  0     0  0
 12 16  1  0     0  0
 13 20  1  0     0  0
 14 17  2  0     0  0
 14 18  1  0     0  0
 14 19  1  0     0  0
 15 17  1  0     0  0
 16 18  2  0     0  0
 21 22  1  0     0  0
 22 23  1  0     0  0
 22 24  1  0     0  0
 23 25  1  0     0  0
 24 26  1  0     0  0
 25 27  1  0     0  0
 26 27  1  0     0  0
M  END
> <Compound >
8

> <standard_type>
pIC50

> <# Confs.>
25

> <canonical_smiles>
NC1=C(C([H])=O)C(OCC2CCCCC2)=NC(NC3=CC=C(C(O)=O)C=C3)=N1

> <standard_relation>
=

> <predicted_activity_value>
6.3810110796350665

> <actual_activity_value>
6.214670164989233

> <Publication ID>
nan

> <standard_units>
nM

> hash
15825024621968746168

$$$$
7
XXILIB    08252103513D 0   0.00000     0.00000

 27 29  0     1  0            999 V2000
    1.3875    0.0000    0.0000 O   0  0  0  0  0  2           0  0  0
   -9.0960    0.5258    3.1202 O   0  0  0  0  0  2           0  0  0
   -0.4328   -0.4765   -3.4890 O   0  0  0  0  0  2           0  0  0
   -8.3471   -0.6141    4.9471 O   0  0  0  0  0  2           0  0  0
   -0.6499    0.0000    1.1864 N   0  0  0  0  0  3           0  0  0
   -2.7122    0.0342    0.0119 N   0  0  0  0  0  3           0  0  0
   -2.6631    0.0365    2.3947 N   0  0  0  0  0  3           0  0  0
   -2.8329    0.0396   -2.3297 N   0  0  0  0  0  3           0  0  0
    0.0000    0.0000    0.0000 C   0  0  0  0  0  4           0  0  0
   -1.9979    0.0227    1.1620 C   0  0  0  0  0  4           0  0  0
   -2.0552    0.0092   -1.1749 C   0  0  0  0  0  4           0  0  0
   -4.0268    0.0602    2.6966 C   0  0  0  0  0  4           0  0  0
   -0.6626    0.0120   -1.2221 C   0  0  0  0  0  4           0  0  0
   -6.7708    0.0625    3.3757 C   0  0  0  0  0  4           0  0  0
   -4.4788   -0.5414    3.8806 C   0  0  0  0  0  4           0  0  0
   -4.9763    0.6628    1.8589 C   0  0  0  0  0  4           0  0  0
   -5.8353   -0.5432    4.2191 C   0  0  0  0  0  4           0  0  0
   -6.3360    0.6650    2.1916 C   0  0  0  0  0  4           0  0  0
   -8.1898    0.0333    3.7707 C   0  0  0  0  0  4           0  0  0
    0.0530    0.0406   -2.4924 C   0  0  0  0  0  4           0  0  0
    1.9722    0.0000    1.3021 C   0  0  0  0  0  4           0  0  0
    3.4954    0.0000    1.1835 C   0  0  2  0  0  4           0  0  0
    4.0002    1.2392    0.4266 C   0  0  0  0  0  4           0  0  0
    4.0077   -1.2833    0.5094 C   0  0  0  0  0  4           0  0  0
    5.5220    1.2392    0.2990 C   0  0  0  0  0  4           0  0  0
    5.5300   -1.2820    0.3811 C   0  0  0  0  0  4           0  0  0
    6.0302   -0.0423   -0.3539 C   0  0  0  0  0  4           0  0  0
  1  9  1  0     0  0
  1 21  1  0     0  0
  2 19  2  0     0  0
  3 20  2  0     0  0
  4 19  1  0     0  0
  5  9  2  0     0  0
  5 10  1  0     0  0
  6 10  2  0     0  0
  6 11  1  0     0  0
  7 10  1  0     0  0
  7 12  1  0     0  0
  8 11  1  0     0  0
  9 13  1  0     0  0
 11 13  2  0     0  0
 12 15  2  0     0  0
 12 16  1  0     0  0
 13 20  1  0     0  0
 14 17  2  0     0  0
 14 18  1  0     0  0
 14 19  1  0     0  0
 15 17  1  0     0  0
 16 18  2  0     0  0
 21 22  1  0     0  0
 22 23  1  0     0  0
 22 24  1  0     0  0
 23 25  1  0     0  0
 24 26  1  0     0  0
 25 27  1  0     0  0
 26 27  1  0     0  0
M  END
> <Compound >
8

> <standard_type>
pIC50

> <# Confs.>
25

> <canonical_smiles>
NC1=C(C([H])=O)C(OCC2CCCCC2)=NC(NC3=CC=C(C(O)=O)C=C3)=N1

> <standard_relation>
=

> <predicted_activity_value>
6.3810110796350665

> <actual_activity_value>
6.214670164989233

> <Publication ID>
nan

> <standard_units>
nM

> hash
15825024621968746168

$$$$
7
XXILIB    08252103513D 0   0.00000     0.00000

 27 29  0     1  0            999 V2000
    1.3875    0.0000    0.0000 O   0  0  0  0  0  2           0  0  0
   -1.3956    0.6569    8.6708 O   0  0  0  0  0  2           0  0  0
   -0.4328   -0.4765   -3.4890 O   0  0  0  0  0  2           0  0  0
    0.4044   -0.5214    7.9164 O   0  0  0  0  0  2           0  0  0
   -0.6499    0.0000    1.1864 N   0  0  0  0  0  3           0  0  0
   -2.7122    0.0342    0.0119 N   0  0  0  0  0  3           0  0  0
   -2.6631    0.0365    2.3947 N   0  0  0  0  0  3           0  0  0
   -2.8329    0.0396   -2.3297 N   0  0  0  0  0  3           0  0  0
    0.0000    0.0000    0.0000 C   0  0  0  0  0  4           0  0  0
   -1.9979    0.0227    1.1620 C   0  0  0  0  0  4           0  0  0
   -2.0552    0.0092   -1.1749 C   0  0  0  0  0  4           0  0  0
   -2.1670    0.0309    3.7005 C   0  0  0  0  0  4           0  0  0
   -0.6626    0.0120   -1.2221 C   0  0  0  0  0  4           0  0  0
   -1.2280    0.0661    6.3666 C   0  0  0  0  0  4           0  0  0
   -2.9027    0.6572    4.7177 C   0  0  0  0  0  4           0  0  0
   -0.9512   -0.5773    4.0449 C   0  0  0  0  0  4           0  0  0
   -2.4409    0.6776    6.0371 C   0  0  0  0  0  4           0  0  0
   -0.4828   -0.5609    5.3639 C   0  0  0  0  0  4           0  0  0
   -0.7789    0.1156    7.7689 C   0  0  0  0  0  4           0  0  0
    0.0530    0.0406   -2.4924 C   0  0  0  0  0  4           0  0  0
    1.9722    0.0000    1.3021 C   0  0  0  0  0  4           0  0  0
    3.4954    0.0000    1.1835 C   0  0  2  0  0  4           0  0  0
    3.9969    1.2389    0.4270 C   0  0  0  0  0  4           0  0  0
    4.1933   -0.1116    2.5509 C   0  0  0  0  0  4           0  0  0
    3.8872    2.5211    1.2505 C   0  0  0  0  0  4           0  0  0
    4.0910    1.1691    3.3778 C   0  0  0  0  0  4           0  0  0
    4.5874    2.3835    2.5989 C   0  0  0  0  0  4           0  0  0
  1  9  1  0     0  0
  1 21  1  0     0  0
  2 19  2  0     0  0
  3 20  2  0     0  0
  4 19  1  0     0  0
  5  9  2  0     0  0
  5 10  1  0     0  0
  6 10  2  0     0  0
  6 11  1  0     0  0
  7 10  1  0     0  0
  7 12  1  0     0  0
  8 11  1  0     0  0
  9 13  1  0     0  0
 11 13  2  0     0  0
 12 15  2  0     0  0
 12 16  1  0     0  0
 13 20  1  0     0  0
 14 17  2  0     0  0
 14 18  1  0     0  0
 14 19  1  0     0  0
 15 17  1  0     0  0
 16 18  2  0     0  0
 21 22  1  0     0  0
 22 23  1  0     0  0
 22 24  1  0     0  0
 23 25  1  0     0  0
 24 26  1  0     0  0
 25 27  1  0     0  0
 26 27  1  0     0  0
M  END
> <Compound >
8

> <standard_type>
pIC50

> <# Confs.>
25

> <canonical_smiles>
NC1=C(C([H])=O)C(OCC2CCCCC2)=NC(NC3=CC=C(C(O)=O)C=C3)=N1

> <standard_relation>
=

> <predicted_activity_value>
6.3810110796350665

> <actual_activity_value>
6.214670164989233

> <Publication ID>
nan

> <standard_units>
nM

> hash
15825024621968746168

$$$$
7
XXILIB    08252103513D 0   0.00000     0.00000

 27 29  0     1  0            999 V2000
    1.3875    0.0000    0.0000 O   0  0  0  0  0  2           0  0  0
   -8.6101   -0.4865    4.7905 O   0  0  0  0  0  2           0  0  0
   -0.4328   -0.4765   -3.4890 O   0  0  0  0  0  2           0  0  0
   -8.9568    0.6616    2.8517 O   0  0  0  0  0  2           0  0  0
   -0.6499    0.0000    1.1864 N   0  0  0  0  0  3           0  0  0
   -2.7122    0.0342    0.0119 N   0  0  0  0  0  3           0  0  0
   -2.6631    0.0365    2.3947 N   0  0  0  0  0  3           0  0  0
   -2.8329    0.0396   -2.3297 N   0  0  0  0  0  3           0  0  0
    0.0000    0.0000    0.0000 C   0  0  0  0  0  4           0  0  0
   -1.9979    0.0227    1.1620 C   0  0  0  0  0  4           0  0  0
   -2.0552    0.0092   -1.1749 C   0  0  0  0  0  4           0  0  0
   -4.0268    0.0602    2.6966 C   0  0  0  0  0  4           0  0  0
   -0.6626    0.0120   -1.2221 C   0  0  0  0  0  4           0  0  0
   -6.7708    0.0625    3.3757 C   0  0  0  0  0  4           0  0  0
   -4.4788   -0.5414    3.8806 C   0  0  0  0  0  4           0  0  0
   -4.9763    0.6628    1.8589 C   0  0  0  0  0  4           0  0  0
   -5.8353   -0.5432    4.2191 C   0  0  0  0  0  4           0  0  0
   -6.3360    0.6650    2.1916 C   0  0  0  0  0  4           0  0  0
   -8.1898    0.0333    3.7707 C   0  0  0  0  0  4           0  0  0
    0.0530    0.0406   -2.4924 C   0  0  0  0  0  4           0  0  0
    1.9722    0.0000    1.3021 C   0  0  0  0  0  4           0  0  0
    3.4954    0.0000    1.1835 C   0  0  2  0  0  4           0  0  0
    4.1636   -0.0000    2.5664 C   0  0  0  0  0  4           0  0  0
    4.0207   -1.1718    0.3347 C   0  0  0  0  0  4           0  0  0
    4.0455   -1.3447    3.2818 C   0  0  0  0  0  4           0  0  0
    3.9094   -2.5192    1.0464 C   0  0  0  0  0  4           0  0  0
    4.5734   -2.4873    2.4197 C   0  0  0  0  0  4           0  0  0
  1  9  1  0     0  0
  1 21  1  0     0  0
  2 19  2  0     0  0
  3 20  2  0     0  0
  4 19  1  0     0  0
  5  9  2  0     0  0
  5 10  1  0     0  0
  6 10  2  0     0  0
  6 11  1  0     0  0
  7 10  1  0     0  0
  7 12  1  0     0  0
  8 11  1  0     0  0
  9 13  1  0     0  0
 11 13  2  0     0  0
 12 15  2  0     0  0
 12 16  1  0     0  0
 13 20  1  0     0  0
 14 17  2  0     0  0
 14 18  1  0     0  0
 14 19  1  0     0  0
 15 17  1  0     0  0
 16 18  2  0     0  0
 21 22  1  0     0  0
 22 23  1  0     0  0
 22 24  1  0     0  0
 23 25  1  0     0  0
 24 26  1  0     0  0
 25 27  1  0     0  0
 26 27  1  0     0  0
M  END
> <Compound >
8

> <standard_type>
pIC50

> <# Confs.>
25

> <canonical_smiles>
NC1=C(C([H])=O)C(OCC2CCCCC2)=NC(NC3=CC=C(C(O)=O)C=C3)=N1

> <standard_relation>
=

> <predicted_activity_value>
6.3810110796350665

> <actual_activity_value>
6.214670164989233

> <Publication ID>
nan

> <standard_units>
nM

> hash
15825024621968746168

$$$$
7
XXILIB    08252103513D 0   0.00000     0.00000

 27 29  0     1  0            999 V2000
    1.3875    0.0000    0.0000 O   0  0  0  0  0  2           0  0  0
   -1.4320   -0.5703    8.6793 O   0  0  0  0  0  2           0  0  0
   -0.4328   -0.4765   -3.4890 O   0  0  0  0  0  2           0  0  0
    0.4137    0.5299    7.9174 O   0  0  0  0  0  2           0  0  0
   -0.6499    0.0000    1.1864 N   0  0  0  0  0  3           0  0  0
   -2.7122    0.0342    0.0119 N   0  0  0  0  0  3           0  0  0
   -2.6631    0.0365    2.3947 N   0  0  0  0  0  3           0  0  0
   -2.8329    0.0396   -2.3297 N   0  0  0  0  0  3           0  0  0
    0.0000    0.0000    0.0000 C   0  0  0  0  0  4           0  0  0
   -1.9979    0.0227    1.1620 C   0  0  0  0  0  4           0  0  0
   -2.0552    0.0092   -1.1749 C   0  0  0  0  0  4           0  0  0
   -2.1670    0.0309    3.7005 C   0  0  0  0  0  4           0  0  0
   -0.6626    0.0120   -1.2221 C   0  0  0  0  0  4           0  0  0
   -1.2334   -0.0171    6.3683 C   0  0  0  0  0  4           0  0  0
   -2.9233   -0.5658    4.7203 C   0  0  0  0  0  4           0  0  0
   -0.9336    0.6036    4.0433 C   0  0  0  0  0  4           0  0  0
   -2.4654   -0.5903    6.0410 C   0  0  0  0  0  4           0  0  0
   -0.4688    0.5825    5.3634 C   0  0  0  0  0  4           0  0  0
   -0.7926   -0.0631    7.7733 C   0  0  0  0  0  4           0  0  0
    0.0530    0.0406   -2.4924 C   0  0  0  0  0  4           0  0  0
    1.9722    0.0000    1.3021 C   0  0  0  0  0  4           0  0  0
    3.4954    0.0000    1.1835 C   0  0  2  0  0  4           0  0  0
    3.9969    1.2389    0.4270 C   0  0  0  0  0  4           0  0  0
    4.1933   -0.1116    2.5509 C   0  0  0  0  0  4           0  0  0
    3.8872    2.5211    1.2505 C   0  0  0  0  0  4           0  0  0
    4.0910    1.1691    3.3778 C   0  0  0  0  0  4           0  0  0
    4.5874    2.3835    2.5989 C   0  0  0  0  0  4           0  0  0
  1  9  1  0     0  0
  1 21  1  0     0  0
  2 19  2  0     0  0
  3 20  2  0     0  0
  4 19  1  0     0  0
  5  9  2  0     0  0
  5 10  1  0     0  0
  6 10  2  0     0  0
  6 11  1  0     0  0
  7 10  1  0     0  0
  7 12  1  0     0  0
  8 11  1  0     0  0
  9 13  1  0     0  0
 11 13  2  0     0  0
 12 15  2  0     0  0
 12 16  1  0     0  0
 13 20  1  0     0  0
 14 17  2  0     0  0
 14 18  1  0     0  0
 14 19  1  0     0  0
 15 17  1  0     0  0
 16 18  2  0     0  0
 21 22  1  0     0  0
 22 23  1  0     0  0
 22 24  1  0     0  0
 23 25  1  0     0  0
 24 26  1  0     0  0
 25 27  1  0     0  0
 26 27  1  0     0  0
M  END
> <Compound >
8

> <standard_type>
pIC50

> <# Confs.>
25

> <canonical_smiles>
NC1=C(C([H])=O)C(OCC2CCCCC2)=NC(NC3=CC=C(C(O)=O)C=C3)=N1

> <standard_relation>
=

> <predicted_activity_value>
6.3810110796350665

> <actual_activity_value>
6.214670164989233

> <Publication ID>
nan

> <standard_units>
nM

> hash
15825024621968746168

$$$$
7
XXILIB    08252103513D 0   0.00000     0.00000

 27 29  0     1  0            999 V2000
    1.3875    0.0000    0.0000 O   0  0  0  0  0  2           0  0  0
   -9.0960    0.5258    3.1202 O   0  0  0  0  0  2           0  0  0
   -0.4328   -0.4765   -3.4890 O   0  0  0  0  0  2           0  0  0
   -8.3471   -0.6141    4.9471 O   0  0  0  0  0  2           0  0  0
   -0.6499    0.0000    1.1864 N   0  0  0  0  0  3           0  0  0
   -2.7122    0.0342    0.0119 N   0  0  0  0  0  3           0  0  0
   -2.6631    0.0365    2.3947 N   0  0  0  0  0  3           0  0  0
   -2.8329    0.0396   -2.3297 N   0  0  0  0  0  3           0  0  0
    0.0000    0.0000    0.0000 C   0  0  0  0  0  4           0  0  0
   -1.9979    0.0227    1.1620 C   0  0  0  0  0  4           0  0  0
   -2.0552    0.0092   -1.1749 C   0  0  0  0  0  4           0  0  0
   -4.0268    0.0602    2.6966 C   0  0  0  0  0  4           0  0  0
   -0.6626    0.0120   -1.2221 C   0  0  0  0  0  4           0  0  0
   -6.7708    0.0625    3.3757 C   0  0  0  0  0  4           0  0  0
   -4.4788   -0.5414    3.8806 C   0  0  0  0  0  4           0  0  0
   -4.9763    0.6628    1.8589 C   0  0  0  0  0  4           0  0  0
   -5.8353   -0.5432    4.2191 C   0  0  0  0  0  4           0  0  0
   -6.3360    0.6650    2.1916 C   0  0  0  0  0  4           0  0  0
   -8.1898    0.0333    3.7707 C   0  0  0  0  0  4           0  0  0
    0.0530    0.0406   -2.4924 C   0  0  0  0  0  4           0  0  0
    1.9722    0.0000    1.3021 C   0  0  0  0  0  4           0  0  0
    3.4954    0.0000    1.1835 C   0  0  2  0  0  4           0  0  0
    4.1669    0.0000    2.5664 C   0  0  0  0  0  4           0  0  0
    3.9950    1.1893    0.3469 C   0  0  0  0  0  4           0  0  0
    5.6898    0.0077    2.4523 C   0  0  0  0  0  4           0  0  0
    5.5185    1.1970    0.2342 C   0  0  0  0  0  4           0  0  0
    6.1829    1.1781    1.6074 C   0  0  0  0  0  4           0  0  0
  1  9  1  0     0  0
  1 21  1  0     0  0
  2 19  2  0     0  0
  3 20  2  0     0  0
  4 19  1  0     0  0
  5  9  2  0     0  0
  5 10  1  0     0  0
  6 10  2  0     0  0
  6 11  1  0     0  0
  7 10  1  0     0  0
  7 12  1  0     0  0
  8 11  1  0     0  0
  9 13  1  0     0  0
 11 13  2  0     0  0
 12 15  2  0     0  0
 12 16  1  0     0  0
 13 20  1  0     0  0
 14 17  2  0     0  0
 14 18  1  0     0  0
 14 19  1  0     0  0
 15 17  1  0     0  0
 16 18  2  0     0  0
 21 22  1  0     0  0
 22 23  1  0     0  0
 22 24  1  0     0  0
 23 25  1  0     0  0
 24 26  1  0     0  0
 25 27  1  0     0  0
 26 27  1  0     0  0
M  END
> <Compound >
8

> <standard_type>
pIC50

> <# Confs.>
25

> <canonical_smiles>
NC1=C(C([H])=O)C(OCC2CCCCC2)=NC(NC3=CC=C(C(O)=O)C=C3)=N1

> <standard_relation>
=

> <predicted_activity_value>
6.3810110796350665

> <actual_activity_value>
6.214670164989233

> <Publication ID>
nan

> <standard_units>
nM

> hash
15825024621968746168

$$$$
7
XXILIB    08252103513D 0   0.00000     0.00000

 27 29  0     1  0            999 V2000
    1.3875    0.0000    0.0000 O   0  0  0  0  0  2           0  0  0
   -8.6101   -0.4865    4.7905 O   0  0  0  0  0  2           0  0  0
   -0.4328   -0.4765   -3.4890 O   0  0  0  0  0  2           0  0  0
   -8.9568    0.6616    2.8517 O   0  0  0  0  0  2           0  0  0
   -0.6499    0.0000    1.1864 N   0  0  0  0  0  3           0  0  0
   -2.7122    0.0342    0.0119 N   0  0  0  0  0  3           0  0  0
   -2.6631    0.0365    2.3947 N   0  0  0  0  0  3           0  0  0
   -2.8329    0.0396   -2.3297 N   0  0  0  0  0  3           0  0  0
    0.0000    0.0000    0.0000 C   0  0  0  0  0  4           0  0  0
   -1.9979    0.0227    1.1620 C   0  0  0  0  0  4           0  0  0
   -2.0552    0.0092   -1.1749 C   0  0  0  0  0  4           0  0  0
   -4.0268    0.0602    2.6966 C   0  0  0  0  0  4           0  0  0
   -0.6626    0.0120   -1.2221 C   0  0  0  0  0  4           0  0  0
   -6.7708    0.0625    3.3757 C   0  0  0  0  0  4           0  0  0
   -4.4788   -0.5414    3.8806 C   0  0  0  0  0  4           0  0  0
   -4.9763    0.6628    1.8589 C   0  0  0  0  0  4           0  0  0
   -5.8353   -0.5432    4.2191 C   0  0  0  0  0  4           0  0  0
   -6.3360    0.6650    2.1916 C   0  0  0  0  0  4           0  0  0
   -8.1898    0.0333    3.7707 C   0  0  0  0  0  4           0  0  0
    0.0530    0.0406   -2.4924 C   0  0  0  0  0  4           0  0  0
    1.9722    0.0000    1.3021 C   0  0  0  0  0  4           0  0  0
    3.4954    0.0000    1.1835 C   0  0  2  0  0  4           0  0  0
    3.9969    1.2389    0.4270 C   0  0  0  0  0  4           0  0  0
    4.1933   -0.1116    2.5509 C   0  0  0  0  0  4           0  0  0
    3.8872    2.5211    1.2505 C   0  0  0  0  0  4           0  0  0
    4.0910    1.1691    3.3778 C   0  0  0  0  0  4           0  0  0
    4.5874    2.3835    2.5989 C   0  0  0  0  0  4           0  0  0
  1  9  1  0     0  0
  1 21  1  0     0  0
  2 19  2  0     0  0
  3 20  2  0     0  0
  4 19  1  0     0  0
  5  9  2  0     0  0
  5 10  1  0     0  0
  6 10  2  0     0  0
  6 11  1  0     0  0
  7 10  1  0     0  0
  7 12  1  0     0  0
  8 11  1  0     0  0
  9 13  1  0     0  0
 11 13  2  0     0  0
 12 15  2  0     0  0
 12 16  1  0     0  0
 13 20  1  0     0  0
 14 17  2  0     0  0
 14 18  1  0     0  0
 14 19  1  0     0  0
 15 17  1  0     0  0
 16 18  2  0     0  0
 21 22  1  0     0  0
 22 23  1  0     0  0
 22 24  1  0     0  0
 23 25  1  0     0  0
 24 26  1  0     0  0
 25 27  1  0     0  0
 26 27  1  0     0  0
M  END
> <Compound >
8

> <standard_type>
pIC50

> <# Confs.>
25

> <canonical_smiles>
NC1=C(C([H])=O)C(OCC2CCCCC2)=NC(NC3=CC=C(C(O)=O)C=C3)=N1

> <standard_relation>
=

> <predicted_activity_value>
6.3810110796350665

> <actual_activity_value>
6.214670164989233

> <Publication ID>
nan

> <standard_units>
nM

> hash
15825024621968746168

$$$$
7
XXILIB    08252103513D 0   0.00000     0.00000

 27 29  0     1  0            999 V2000
    1.3875    0.0000    0.0000 O   0  0  0  0  0  2           0  0  0
   -9.1063   -0.2549    3.1345 O   0  0  0  0  0  2           0  0  0
   -0.4328   -0.4765   -3.4890 O   0  0  0  0  0  2           0  0  0
   -8.3183    0.8569    4.9622 O   0  0  0  0  0  2           0  0  0
   -0.6499    0.0000    1.1864 N   0  0  0  0  0  3           0  0  0
   -2.7122    0.0342    0.0119 N   0  0  0  0  0  3           0  0  0
   -2.6631    0.0365    2.3947 N   0  0  0  0  0  3           0  0  0
   -2.8329    0.0396   -2.3297 N   0  0  0  0  0  3           0  0  0
    0.0000    0.0000    0.0000 C   0  0  0  0  0  4           0  0  0
   -1.9979    0.0227    1.1620 C   0  0  0  0  0  4           0  0  0
   -2.0552    0.0092   -1.1749 C   0  0  0  0  0  4           0  0  0
   -4.0268    0.0602    2.6966 C   0  0  0  0  0  4           0  0  0
   -0.6626    0.0120   -1.2221 C   0  0  0  0  0  4           0  0  0
   -6.7685    0.1458    3.3797 C   0  0  0  0  0  4           0  0  0
   -4.4582    0.6816    3.8780 C   0  0  0  0  0  4           0  0  0
   -4.9957   -0.5180    1.8638 C   0  0  0  0  0  4           0  0  0
   -5.8132    0.7248    4.2197 C   0  0  0  0  0  4           0  0  0
   -6.3540   -0.4783    2.1995 C   0  0  0  0  0  4           0  0  0
   -8.1843    0.2121    3.7815 C   0  0  0  0  0  4           0  0  0
    0.0530    0.0406   -2.4924 C   0  0  0  0  0  4           0  0  0
    1.9722    0.0000    1.3021 C   0  0  0  0  0  4           0  0  0
    3.4954    0.0000    1.1835 C   0  0  2  0  0  4           0  0  0
    4.0002   -1.2392    0.4266 C   0  0  0  0  0  4           0  0  0
    4.1676    0.0941    2.5630 C   0  0  0  0  0  4           0  0  0
    5.5231   -1.2470    0.3124 C   0  0  0  0  0  4           0  0  0
    5.6910    0.0850    2.4481 C   0  0  0  0  0  4           0  0  0
    6.1886   -1.1358    1.6804 C   0  0  0  0  0  4           0  0  0
  1  9  1  0     0  0
  1 21  1  0     0  0
  2 19  2  0     0  0
  3 20  2  0     0  0
  4 19  1  0     0  0
  5  9  2  0     0  0
  5 10  1  0     0  0
  6 10  2  0     0  0
  6 11  1  0     0  0
  7 10  1  0     0  0
  7 12  1  0     0  0
  8 11  1  0     0  0
  9 13  1  0     0  0
 11 13  2  0     0  0
 12 15  2  0     0  0
 12 16  1  0     0  0
 13 20  1  0     0  0
 14 17  2  0     0  0
 14 18  1  0     0  0
 14 19  1  0     0  0
 15 17  1  0     0  0
 16 18  2  0     0  0
 21 22  1  0     0  0
 22 23  1  0     0  0
 22 24  1  0     0  0
 23 25  1  0     0  0
 24 26  1  0     0  0
 25 27  1  0     0  0
 26 27  1  0     0  0
M  END
> <Compound >
8

> <standard_type>
pIC50

> <# Confs.>
25

> <canonical_smiles>
NC1=C(C([H])=O)C(OCC2CCCCC2)=NC(NC3=CC=C(C(O)=O)C=C3)=N1

> <standard_relation>
=

> <predicted_activity_value>
6.3810110796350665

> <actual_activity_value>
6.214670164989233

> <Publication ID>
nan

> <standard_units>
nM

> hash
15825024621968746168

$$$$
7
XXILIB    08252103513D 0   0.00000     0.00000

 27 29  0     1  0            999 V2000
    1.3875    0.0000    0.0000 O   0  0  0  0  0  2           0  0  0
   -9.1063   -0.2549    3.1345 O   0  0  0  0  0  2           0  0  0
   -0.4328   -0.4765   -3.4890 O   0  0  0  0  0  2           0  0  0
   -8.3183    0.8569    4.9622 O   0  0  0  0  0  2           0  0  0
   -0.6499    0.0000    1.1864 N   0  0  0  0  0  3           0  0  0
   -2.7122    0.0342    0.0119 N   0  0  0  0  0  3           0  0  0
   -2.6631    0.0365    2.3947 N   0  0  0  0  0  3           0  0  0
   -2.8329    0.0396   -2.3297 N   0  0  0  0  0  3           0  0  0
    0.0000    0.0000    0.0000 C   0  0  0  0  0  4           0  0  0
   -1.9979    0.0227    1.1620 C   0  0  0  0  0  4           0  0  0
   -2.0552    0.0092   -1.1749 C   0  0  0  0  0  4           0  0  0
   -4.0268    0.0602    2.6966 C   0  0  0  0  0  4           0  0  0
   -0.6626    0.0120   -1.2221 C   0  0  0  0  0  4           0  0  0
   -6.7685    0.1458    3.3797 C   0  0  0  0  0  4           0  0  0
   -4.4582    0.6816    3.8780 C   0  0  0  0  0  4           0  0  0
   -4.9957   -0.5180    1.8638 C   0  0  0  0  0  4           0  0  0
   -5.8132    0.7248    4.2197 C   0  0  0  0  0  4           0  0  0
   -6.3540   -0.4783    2.1995 C   0  0  0  0  0  4           0  0  0
   -8.1843    0.2121    3.7815 C   0  0  0  0  0  4           0  0  0
    0.0530    0.0406   -2.4924 C   0  0  0  0  0  4           0  0  0
    1.9722    0.0000    1.3021 C   0  0  0  0  0  4           0  0  0
    3.4954    0.0000    1.1835 C   0  0  2  0  0  4           0  0  0
    4.0002    1.2392    0.4266 C   0  0  0  0  0  4           0  0  0
    4.0077   -1.2833    0.5094 C   0  0  0  0  0  4           0  0  0
    5.5220    1.2392    0.2990 C   0  0  0  0  0  4           0  0  0
    5.5300   -1.2820    0.3811 C   0  0  0  0  0  4           0  0  0
    6.0302   -0.0423   -0.3539 C   0  0  0  0  0  4           0  0  0
  1  9  1  0     0  0
  1 21  1  0     0  0
  2 19  2  0     0  0
  3 20  2  0     0  0
  4 19  1  0     0  0
  5  9  2  0     0  0
  5 10  1  0     0  0
  6 10  2  0     0  0
  6 11  1  0     0  0
  7 10  1  0     0  0
  7 12  1  0     0  0
  8 11  1  0     0  0
  9 13  1  0     0  0
 11 13  2  0     0  0
 12 15  2  0     0  0
 12 16  1  0     0  0
 13 20  1  0     0  0
 14 17  2  0     0  0
 14 18  1  0     0  0
 14 19  1  0     0  0
 15 17  1  0     0  0
 16 18  2  0     0  0
 21 22  1  0     0  0
 22 23  1  0     0  0
 22 24  1  0     0  0
 23 25  1  0     0  0
 24 26  1  0     0  0
 25 27  1  0     0  0
 26 27  1  0     0  0
M  END
> <Compound >
8

> <standard_type>
pIC50

> <# Confs.>
25

> <canonical_smiles>
NC1=C(C([H])=O)C(OCC2CCCCC2)=NC(NC3=CC=C(C(O)=O)C=C3)=N1

> <standard_relation>
=

> <predicted_activity_value>
6.3810110796350665

> <actual_activity_value>
6.214670164989233

> <Publication ID>
nan

> <standard_units>
nM

> hash
15825024621968746168

$$$$
7
XXILIB    08252103513D 0   0.00000     0.00000

 27 29  0     1  0            999 V2000
    1.3875    0.0000    0.0000 O   0  0  0  0  0  2           0  0  0
   -1.4320   -0.5703    8.6793 O   0  0  0  0  0  2           0  0  0
   -0.4328   -0.4765   -3.4890 O   0  0  0  0  0  2           0  0  0
    0.4137    0.5299    7.9174 O   0  0  0  0  0  2           0  0  0
   -0.6499    0.0000    1.1864 N   0  0  0  0  0  3           0  0  0
   -2.7122    0.0342    0.0119 N   0  0  0  0  0  3           0  0  0
   -2.6631    0.0365    2.3947 N   0  0  0  0  0  3           0  0  0
   -2.8329    0.0396   -2.3297 N   0  0  0  0  0  3           0  0  0
    0.0000    0.0000    0.0000 C   0  0  0  0  0  4           0  0  0
   -1.9979    0.0227    1.1620 C   0  0  0  0  0  4           0  0  0
   -2.0552    0.0092   -1.1749 C   0  0  0  0  0  4           0  0  0
   -2.1670    0.0309    3.7005 C   0  0  0  0  0  4           0  0  0
   -0.6626    0.0120   -1.2221 C   0  0  0  0  0  4           0  0  0
   -1.2334   -0.0171    6.3683 C   0  0  0  0  0  4           0  0  0
   -2.9233   -0.5658    4.7203 C   0  0  0  0  0  4           0  0  0
   -0.9336    0.6036    4.0433 C   0  0  0  0  0  4           0  0  0
   -2.4654   -0.5903    6.0410 C   0  0  0  0  0  4           0  0  0
   -0.4688    0.5825    5.3634 C   0  0  0  0  0  4           0  0  0
   -0.7926   -0.0631    7.7733 C   0  0  0  0  0  4           0  0  0
    0.0530    0.0406   -2.4924 C   0  0  0  0  0  4           0  0  0
    1.9722    0.0000    1.3021 C   0  0  0  0  0  4           0  0  0
    3.4954    0.0000    1.1835 C   0  0  2  0  0  4           0  0  0
    4.1636   -0.0000    2.5664 C   0  0  0  0  0  4           0  0  0
    4.0207   -1.1718    0.3347 C   0  0  0  0  0  4           0  0  0
    4.0455   -1.3447    3.2818 C   0  0  0  0  0  4           0  0  0
    3.9094   -2.5192    1.0464 C   0  0  0  0  0  4           0  0  0
    4.5734   -2.4873    2.4197 C   0  0  0  0  0  4           0  0  0
  1  9  1  0     0  0
  1 21  1  0     0  0
  2 19  2  0     0  0
  3 20  2  0     0  0
  4 19  1  0     0  0
  5  9  2  0     0  0
  5 10  1  0     0  0
  6 10  2  0     0  0
  6 11  1  0     0  0
  7 10  1  0     0  0
  7 12  1  0     0  0
  8 11  1  0     0  0
  9 13  1  0     0  0
 11 13  2  0     0  0
 12 15  2  0     0  0
 12 16  1  0     0  0
 13 20  1  0     0  0
 14 17  2  0     0  0
 14 18  1  0     0  0
 14 19  1  0     0  0
 15 17  1  0     0  0
 16 18  2  0     0  0
 21 22  1  0     0  0
 22 23  1  0     0  0
 22 24  1  0     0  0
 23 25  1  0     0  0
 24 26  1  0     0  0
 25 27  1  0     0  0
 26 27  1  0     0  0
M  END
> <Compound >
8

> <standard_type>
pIC50

> <# Confs.>
25

> <canonical_smiles>
NC1=C(C([H])=O)C(OCC2CCCCC2)=NC(NC3=CC=C(C(O)=O)C=C3)=N1

> <standard_relation>
=

> <predicted_activity_value>
6.3810110796350665

> <actual_activity_value>
6.214670164989233

> <Publication ID>
nan

> <standard_units>
nM

> hash
15825024621968746168

$$$$
7
XXILIB    08252103513D 0   0.00000     0.00000

 27 29  0     1  0            999 V2000
    1.3875    0.0000    0.0000 O   0  0  0  0  0  2           0  0  0
   -8.5858    0.7409    4.8043 O   0  0  0  0  0  2           0  0  0
   -0.4328   -0.4765   -3.4890 O   0  0  0  0  0  2           0  0  0
   -8.9726   -0.3896    2.8627 O   0  0  0  0  0  2           0  0  0
   -0.6499    0.0000    1.1864 N   0  0  0  0  0  3           0  0  0
   -2.7122    0.0342    0.0119 N   0  0  0  0  0  3           0  0  0
   -2.6631    0.0365    2.3947 N   0  0  0  0  0  3           0  0  0
   -2.8329    0.0396   -2.3297 N   0  0  0  0  0  3           0  0  0
    0.0000    0.0000    0.0000 C   0  0  0  0  0  4           0  0  0
   -1.9979    0.0227    1.1620 C   0  0  0  0  0  4           0  0  0
   -2.0552    0.0092   -1.1749 C   0  0  0  0  0  4           0  0  0
   -4.0268    0.0602    2.6966 C   0  0  0  0  0  4           0  0  0
   -0.6626    0.0120   -1.2221 C   0  0  0  0  0  4           0  0  0
   -6.7685    0.1458    3.3797 C   0  0  0  0  0  4           0  0  0
   -4.4582    0.6816    3.8780 C   0  0  0  0  0  4           0  0  0
   -4.9957   -0.5180    1.8638 C   0  0  0  0  0  4           0  0  0
   -5.8132    0.7248    4.2197 C   0  0  0  0  0  4           0  0  0
   -6.3540   -0.4783    2.1995 C   0  0  0  0  0  4           0  0  0
   -8.1843    0.2121    3.7815 C   0  0  0  0  0  4           0  0  0
    0.0530    0.0406   -2.4924 C   0  0  0  0  0  4           0  0  0
    1.9722    0.0000    1.3021 C   0  0  0  0  0  4           0  0  0
    3.4954    0.0000    1.1835 C   0  0  2  0  0  4           0  0  0
    4.1636   -0.0000    2.5664 C   0  0  0  0  0  4           0  0  0
    4.0207   -1.1718    0.3347 C   0  0  0  0  0  4           0  0  0
    4.0455   -1.3447    3.2818 C   0  0  0  0  0  4           0  0  0
    3.9094   -2.5192    1.0464 C   0  0  0  0  0  4           0  0  0
    4.5734   -2.4873    2.4197 C   0  0  0  0  0  4           0  0  0
  1  9  1  0     0  0
  1 21  1  0     0  0
  2 19  2  0     0  0
  3 20  2  0     0  0
  4 19  1  0     0  0
  5  9  2  0     0  0
  5 10  1  0     0  0
  6 10  2  0     0  0
  6 11  1  0     0  0
  7 10  1  0     0  0
  7 12  1  0     0  0
  8 11  1  0     0  0
  9 13  1  0     0  0
 11 13  2  0     0  0
 12 15  2  0     0  0
 12 16  1  0     0  0
 13 20  1  0     0  0
 14 17  2  0     0  0
 14 18  1  0     0  0
 14 19  1  0     0  0
 15 17  1  0     0  0
 16 18  2  0     0  0
 21 22  1  0     0  0
 22 23  1  0     0  0
 22 24  1  0     0  0
 23 25  1  0     0  0
 24 26  1  0     0  0
 25 27  1  0     0  0
 26 27  1  0     0  0
M  END
> <Compound >
8

> <standard_type>
pIC50

> <# Confs.>
25

> <canonical_smiles>
NC1=C(C([H])=O)C(OCC2CCCCC2)=NC(NC3=CC=C(C(O)=O)C=C3)=N1

> <standard_relation>
=

> <predicted_activity_value>
6.3810110796350665

> <actual_activity_value>
6.214670164989233

> <Publication ID>
nan

> <standard_units>
nM

> hash
15825024621968746168

$$$$
7
XXILIB    08252103513D 0   0.00000     0.00000

 27 29  0     1  0            999 V2000
    1.3875    0.0000    0.0000 O   0  0  0  0  0  2           0  0  0
   -9.1063   -0.2549    3.1345 O   0  0  0  0  0  2           0  0  0
   -0.4328   -0.4765   -3.4890 O   0  0  0  0  0  2           0  0  0
   -8.3183    0.8569    4.9622 O   0  0  0  0  0  2           0  0  0
   -0.6499    0.0000    1.1864 N   0  0  0  0  0  3           0  0  0
   -2.7122    0.0342    0.0119 N   0  0  0  0  0  3           0  0  0
   -2.6631    0.0365    2.3947 N   0  0  0  0  0  3           0  0  0
   -2.8329    0.0396   -2.3297 N   0  0  0  0  0  3           0  0  0
    0.0000    0.0000    0.0000 C   0  0  0  0  0  4           0  0  0
   -1.9979    0.0227    1.1620 C   0  0  0  0  0  4           0  0  0
   -2.0552    0.0092   -1.1749 C   0  0  0  0  0  4           0  0  0
   -4.0268    0.0602    2.6966 C   0  0  0  0  0  4           0  0  0
   -0.6626    0.0120   -1.2221 C   0  0  0  0  0  4           0  0  0
   -6.7685    0.1458    3.3797 C   0  0  0  0  0  4           0  0  0
   -4.4582    0.6816    3.8780 C   0  0  0  0  0  4           0  0  0
   -4.9957   -0.5180    1.8638 C   0  0  0  0  0  4           0  0  0
   -5.8132    0.7248    4.2197 C   0  0  0  0  0  4           0  0  0
   -6.3540   -0.4783    2.1995 C   0  0  0  0  0  4           0  0  0
   -8.1843    0.2121    3.7815 C   0  0  0  0  0  4           0  0  0
    0.0530    0.0406   -2.4924 C   0  0  0  0  0  4           0  0  0
    1.9722    0.0000    1.3021 C   0  0  0  0  0  4           0  0  0
    3.4954    0.0000    1.1835 C   0  0  2  0  0  4           0  0  0
    4.1669    0.0000    2.5664 C   0  0  0  0  0  4           0  0  0
    3.9950    1.1893    0.3469 C   0  0  0  0  0  4           0  0  0
    5.6898    0.0077    2.4523 C   0  0  0  0  0  4           0  0  0
    5.5185    1.1970    0.2342 C   0  0  0  0  0  4           0  0  0
    6.1829    1.1781    1.6074 C   0  0  0  0  0  4           0  0  0
  1  9  1  0     0  0
  1 21  1  0     0  0
  2 19  2  0     0  0
  3 20  2  0     0  0
  4 19  1  0     0  0
  5  9  2  0     0  0
  5 10  1  0     0  0
  6 10  2  0     0  0
  6 11  1  0     0  0
  7 10  1  0     0  0
  7 12  1  0     0  0
  8 11  1  0     0  0
  9 13  1  0     0  0
 11 13  2  0     0  0
 12 15  2  0     0  0
 12 16  1  0     0  0
 13 20  1  0     0  0
 14 17  2  0     0  0
 14 18  1  0     0  0
 14 19  1  0     0  0
 15 17  1  0     0  0
 16 18  2  0     0  0
 21 22  1  0     0  0
 22 23  1  0     0  0
 22 24  1  0     0  0
 23 25  1  0     0  0
 24 26  1  0     0  0
 25 27  1  0     0  0
 26 27  1  0     0  0
M  END
> <Compound >
8

> <standard_type>
pIC50

> <# Confs.>
25

> <canonical_smiles>
NC1=C(C([H])=O)C(OCC2CCCCC2)=NC(NC3=CC=C(C(O)=O)C=C3)=N1

> <standard_relation>
=

> <predicted_activity_value>
6.3810110796350665

> <actual_activity_value>
6.214670164989233

> <Publication ID>
nan

> <standard_units>
nM

> hash
15825024621968746168

$$$$
1
XXILIB    08252103513D 0   0.00000     0.00000

 27 29  0     1  0            999 V2000
   -4.6013    0.5742   -0.8922 O   0  0  0  0  0  2           0  0  0
   -2.6441   -0.0207    2.4148 O   0  0  0  0  0  2           0  0  0
   -0.6185    0.0000    1.1993 N   0  0  0  0  0  3           0  0  0
   -0.6724   -0.0018   -1.1766 N   0  0  0  0  0  3           0  0  0
   -4.1072   -0.0143    0.0774 N   0  0  0  0  0  3           0  0  0
    1.4049    0.0000   -0.0000 N   0  0  0  0  0  3           0  0  0
   -2.6923   -0.0265   -2.3860 N   0  0  0  0  0  3           0  0  0
    1.4764    0.4866    6.3123 N   0  0  0  0  0  3           0  0  0
   -1.9706   -0.0005    1.2034 C   0  0  0  0  0  4           0  0  0
    0.0000    0.0000    0.0000 C   0  0  0  0  0  4           0  0  0
   -2.0290    0.0165   -1.1598 C   0  0  0  0  0  4           0  0  0
   -2.7366    0.0123    0.0420 C   0  0  0  0  0  4           0  0  0
    2.3161   -0.0000    1.0589 C   0  0  0  0  0  4           0  0  0
    2.9712   -0.5784    3.3470 C   0  0  0  0  0  4           0  0  0
    2.0326   -0.5919    2.3011 C   0  0  0  0  0  4           0  0  0
    3.5657    0.6141    0.8859 C   0  0  0  0  0  4           0  0  0
    4.2059    0.0497    3.1462 C   0  0  0  0  0  4           0  0  0
    4.5019    0.6409    1.9201 C   0  0  0  0  0  4           0  0  0
   -1.7905   -0.0393    3.5586 C   0  0  0  0  0  4           0  0  0
    1.9912   -0.2558    5.5837 C   0  0  0  0  0  4           0  0  0
    2.6423   -1.1988    4.6739 C   0  0  0  0  0  4           0  0  0
   -2.6360   -0.0605    4.8306 C   0  0  1  0  0  4           0  0  0
   -3.5434    1.1782    4.9220 C   0  0  0  0  0  4           0  0  0
   -3.4678   -1.3484    4.9006 C   0  0  0  0  0  4           0  0  0
   -4.4303    1.1380    6.1649 C   0  0  0  0  0  4           0  0  0
   -4.3509   -1.3839    6.1453 C   0  0  0  0  0  4           0  0  0
   -5.2430   -0.1506    6.2382 C   0  0  0  0  0  4           0  0  0
  1  5  2  0     0  0
  2  9  1  0     0  0
  2 19  1  0     0  0
  3  9  2  0     0  0
  3 10  1  0     0  0
  4 10  2  0     0  0
  4 11  1  0     0  0
  5 12  1  0     0  0
  6 10  1  0     0  0
  6 13  1  0     0  0
  7 11  1  0     0  0
  8 20  3  0     0  0
  9 12  1  0     0  0
 11 12  2  0     0  0
 13 15  1  0     0  0
 13 16  2  0     0  0
 14 15  2  0     0  0
 14 17  1  0     0  0
 14 21  1  0     0  0
 16 18  1  0     0  0
 17 18  2  0     0  0
 19 22  1  0     0  0
 20 21  1  0     0  0
 22 23  1  0     0  0
 22 24  1  0     0  0
 23 25  1  0     0  0
 24 26  1  0     0  0
 25 27  1  0     0  0
 26 27  1  0     0  0
M  END
> <Compound >
2

> <standard_type>
pIC50

> <# Confs.>
25

> <canonical_smiles>
N#CCC1=CC(NC2=NC(N)=C(N=O)C(OCC3CCCCC3)=N2)=CC=C1

> <standard_relation>
=

> <predicted_activity_value>
7.527243550682788

> <actual_activity_value>
7.481486060122112

> <Publication ID>
nan

> <standard_units>
nM

> hash
17599172884970068713

$$$$
1
XXILIB    08252103513D 0   0.00000     0.00000

 27 29  0     1  0            999 V2000
   -4.6013    0.5742   -0.8922 O   0  0  0  0  0  2           0  0  0
   -2.6441   -0.0207    2.4148 O   0  0  0  0  0  2           0  0  0
   -0.6185    0.0000    1.1993 N   0  0  0  0  0  3           0  0  0
   -0.6724   -0.0018   -1.1766 N   0  0  0  0  0  3           0  0  0
   -4.1072   -0.0143    0.0774 N   0  0  0  0  0  3           0  0  0
    1.4049    0.0000   -0.0000 N   0  0  0  0  0  3           0  0  0
   -2.6923   -0.0265   -2.3860 N   0  0  0  0  0  3           0  0  0
    1.5541   -0.4258    6.3758 N   0  0  0  0  0  3           0  0  0
   -1.9706   -0.0005    1.2034 C   0  0  0  0  0  4           0  0  0
    0.0000    0.0000    0.0000 C   0  0  0  0  0  4           0  0  0
   -2.0290    0.0165   -1.1598 C   0  0  0  0  0  4           0  0  0
   -2.7366    0.0123    0.0420 C   0  0  0  0  0  4           0  0  0
    2.3161    0.0000    1.0589 C   0  0  0  0  0  4           0  0  0
    2.9689    0.5733    3.3489 C   0  0  0  0  0  4           0  0  0
    2.0326    0.5919    2.3011 C   0  0  0  0  0  4           0  0  0
    3.5671   -0.6109    0.8847 C   0  0  0  0  0  4           0  0  0
    4.2116   -0.0365    3.1412 C   0  0  0  0  0  4           0  0  0
    4.5076   -0.6279    1.9152 C   0  0  0  0  0  4           0  0  0
   -1.7905   -0.0393    3.5586 C   0  0  0  0  0  4           0  0  0
    2.0426    0.3020    5.6152 C   0  0  0  0  0  4           0  0  0
    2.6553    1.2285    4.6627 C   0  0  0  0  0  4           0  0  0
   -2.6360   -0.0605    4.8306 C   0  0  1  0  0  4           0  0  0
   -3.5434    1.1782    4.9220 C   0  0  0  0  0  4           0  0  0
   -3.4678   -1.3484    4.9006 C   0  0  0  0  0  4           0  0  0
   -4.4303    1.1380    6.1649 C   0  0  0  0  0  4           0  0  0
   -4.3509   -1.3839    6.1453 C   0  0  0  0  0  4           0  0  0
   -5.2430   -0.1506    6.2382 C   0  0  0  0  0  4           0  0  0
  1  5  2  0     0  0
  2  9  1  0     0  0
  2 19  1  0     0  0
  3  9  2  0     0  0
  3 10  1  0     0  0
  4 10  2  0     0  0
  4 11  1  0     0  0
  5 12  1  0     0  0
  6 10  1  0     0  0
  6 13  1  0     0  0
  7 11  1  0     0  0
  8 20  3  0     0  0
  9 12  1  0     0  0
 11 12  2  0     0  0
 13 15  1  0     0  0
 13 16  2  0     0  0
 14 15  2  0     0  0
 14 17  1  0     0  0
 14 21  1  0     0  0
 16 18  1  0     0  0
 17 18  2  0     0  0
 19 22  1  0     0  0
 20 21  1  0     0  0
 22 23  1  0     0  0
 22 24  1  0     0  0
 23 25  1  0     0  0
 24 26  1  0     0  0
 25 27  1  0     0  0
 26 27  1  0     0  0
M  END
> <Compound >
2

> <standard_type>
pIC50

> <# Confs.>
25

> <canonical_smiles>
N#CCC1=CC(NC2=NC(N)=C(N=O)C(OCC3CCCCC3)=N2)=CC=C1

> <standard_relation>
=

> <predicted_activity_value>
7.527243550682788

> <actual_activity_value>
7.481486060122112

> <Publication ID>
nan

> <standard_units>
nM

> hash
17599172884970068713

$$$$
1
XXILIB    08252103513D 0   0.00000     0.00000

 27 29  0     1  0            999 V2000
   -4.6013    0.5742   -0.8922 O   0  0  0  0  0  2           0  0  0
   -2.6441   -0.0207    2.4148 O   0  0  0  0  0  2           0  0  0
   -0.6185    0.0000    1.1993 N   0  0  0  0  0  3           0  0  0
   -0.6724   -0.0018   -1.1766 N   0  0  0  0  0  3           0  0  0
   -4.1072   -0.0143    0.0774 N   0  0  0  0  0  3           0  0  0
    1.4049   -0.0000    0.0000 N   0  0  0  0  0  3           0  0  0
   -2.6923   -0.0265   -2.3860 N   0  0  0  0  0  3           0  0  0
    1.5541    0.4258   -6.3758 N   0  0  0  0  0  3           0  0  0
   -1.9706   -0.0005    1.2034 C   0  0  0  0  0  4           0  0  0
    0.0000    0.0000    0.0000 C   0  0  0  0  0  4           0  0  0
   -2.0290    0.0165   -1.1598 C   0  0  0  0  0  4           0  0  0
   -2.7366    0.0123    0.0420 C   0  0  0  0  0  4           0  0  0
    2.3161    0.0000   -1.0589 C   0  0  0  0  0  4           0  0  0
    2.9689   -0.5733   -3.3489 C   0  0  0  0  0  4           0  0  0
    2.0326   -0.5919   -2.3011 C   0  0  0  0  0  4           0  0  0
    3.5671    0.6109   -0.8847 C   0  0  0  0  0  4           0  0  0
    4.2116    0.0365   -3.1412 C   0  0  0  0  0  4           0  0  0
    4.5076    0.6279   -1.9152 C   0  0  0  0  0  4           0  0  0
   -1.7905   -0.0393    3.5586 C   0  0  0  0  0  4           0  0  0
    2.0426   -0.3020   -5.6152 C   0  0  0  0  0  4           0  0  0
    2.6553   -1.2285   -4.6627 C   0  0  0  0  0  4           0  0  0
   -2.6360   -0.0605    4.8306 C   0  0  1  0  0  4           0  0  0
   -3.5425   -1.3022    4.8811 C   0  0  0  0  0  4           0  0  0
   -1.7376    0.0059    6.0733 C   0  0  0  0  0  4           0  0  0
   -4.3524   -1.3579    6.1750 C   0  0  0  0  0  4           0  0  0
   -2.5522   -0.0485    7.3631 C   0  0  0  0  0  4           0  0  0
   -3.4567   -1.2755    7.4067 C   0  0  0  0  0  4           0  0  0
  1  5  2  0     0  0
  2  9  1  0     0  0
  2 19  1  0     0  0
  3  9  2  0     0  0
  3 10  1  0     0  0
  4 10  2  0     0  0
  4 11  1  0     0  0
  5 12  1  0     0  0
  6 10  1  0     0  0
  6 13  1  0     0  0
  7 11  1  0     0  0
  8 20  3  0     0  0
  9 12  1  0     0  0
 11 12  2  0     0  0
 13 15  1  0     0  0
 13 16  2  0     0  0
 14 15  2  0     0  0
 14 17  1  0     0  0
 14 21  1  0     0  0
 16 18  1  0     0  0
 17 18  2  0     0  0
 19 22  1  0     0  0
 20 21  1  0     0  0
 22 23  1  0     0  0
 22 24  1  0     0  0
 23 25  1  0     0  0
 24 26  1  0     0  0
 25 27  1  0     0  0
 26 27  1  0     0  0
M  END
> <Compound >
2

> <standard_type>
pIC50

> <# Confs.>
25

> <canonical_smiles>
N#CCC1=CC(NC2=NC(N)=C(N=O)C(OCC3CCCCC3)=N2)=CC=C1

> <standard_relation>
=

> <predicted_activity_value>
7.527243550682788

> <actual_activity_value>
7.481486060122112

> <Publication ID>
nan

> <standard_units>
nM

> hash
17599172884970068713

$$$$
1
XXILIB    08252103513D 0   0.00000     0.00000

 27 29  0     1  0            999 V2000
   -4.6013    0.5742   -0.8922 O   0  0  0  0  0  2           0  0  0
   -2.6441   -0.0207    2.4148 O   0  0  0  0  0  2           0  0  0
   -0.6185    0.0000    1.1993 N   0  0  0  0  0  3           0  0  0
   -0.6724   -0.0018   -1.1766 N   0  0  0  0  0  3           0  0  0
   -4.1072   -0.0143    0.0774 N   0  0  0  0  0  3           0  0  0
    1.4049   -0.0000    0.0000 N   0  0  0  0  0  3           0  0  0
   -2.6923   -0.0265   -2.3860 N   0  0  0  0  0  3           0  0  0
    3.3357   -3.7621   -4.7123 N   0  0  0  0  0  3           0  0  0
   -1.9706   -0.0005    1.2034 C   0  0  0  0  0  4           0  0  0
    0.0000    0.0000    0.0000 C   0  0  0  0  0  4           0  0  0
   -2.0290    0.0165   -1.1598 C   0  0  0  0  0  4           0  0  0
   -2.7366    0.0123    0.0420 C   0  0  0  0  0  4           0  0  0
    2.3161    0.0000   -1.0589 C   0  0  0  0  0  4           0  0  0
    2.9689   -0.5733   -3.3489 C   0  0  0  0  0  4           0  0  0
    2.0326   -0.5919   -2.3011 C   0  0  0  0  0  4           0  0  0
    3.5671    0.6109   -0.8847 C   0  0  0  0  0  4           0  0  0
    4.2116    0.0365   -3.1412 C   0  0  0  0  0  4           0  0  0
    4.5076    0.6279   -1.9152 C   0  0  0  0  0  4           0  0  0
   -1.7905   -0.0393    3.5586 C   0  0  0  0  0  4           0  0  0
    3.0352   -2.6414   -4.6853 C   0  0  0  0  0  4           0  0  0
    2.6553   -1.2285   -4.6627 C   0  0  0  0  0  4           0  0  0
   -2.6360   -0.0605    4.8306 C   0  0  1  0  0  4           0  0  0
   -3.5425   -1.3022    4.8811 C   0  0  0  0  0  4           0  0  0
   -1.7376    0.0059    6.0733 C   0  0  0  0  0  4           0  0  0
   -4.3524   -1.3579    6.1750 C   0  0  0  0  0  4           0  0  0
   -2.5522   -0.0485    7.3631 C   0  0  0  0  0  4           0  0  0
   -3.4567   -1.2755    7.4067 C   0  0  0  0  0  4           0  0  0
  1  5  2  0     0  0
  2  9  1  0     0  0
  2 19  1  0     0  0
  3  9  2  0     0  0
  3 10  1  0     0  0
  4 10  2  0     0  0
  4 11  1  0     0  0
  5 12  1  0     0  0
  6 10  1  0     0  0
  6 13  1  0     0  0
  7 11  1  0     0  0
  8 20  3  0     0  0
  9 12  1  0     0  0
 11 12  2  0     0  0
 13 15  1  0     0  0
 13 16  2  0     0  0
 14 15  2  0     0  0
 14 17  1  0     0  0
 14 21  1  0     0  0
 16 18  1  0     0  0
 17 18  2  0     0  0
 19 22  1  0     0  0
 20 21  1  0     0  0
 22 23  1  0     0  0
 22 24  1  0     0  0
 23 25  1  0     0  0
 24 26  1  0     0  0
 25 27  1  0     0  0
 26 27  1  0     0  0
M  END
> <Compound >
2

> <standard_type>
pIC50

> <# Confs.>
25

> <canonical_smiles>
N#CCC1=CC(NC2=NC(N)=C(N=O)C(OCC3CCCCC3)=N2)=CC=C1

> <standard_relation>
=

> <predicted_activity_value>
7.527243550682788

> <actual_activity_value>
7.481486060122112

> <Publication ID>
nan

> <standard_units>
nM

> hash
17599172884970068713

$$$$
1
XXILIB    08252103513D 0   0.00000     0.00000

 27 29  0     1  0            999 V2000
   -4.6013    0.5742   -0.8922 O   0  0  0  0  0  2           0  0  0
   -2.6441   -0.0207    2.4148 O   0  0  0  0  0  2           0  0  0
   -0.6185    0.0000    1.1993 N   0  0  0  0  0  3           0  0  0
   -0.6724   -0.0018   -1.1766 N   0  0  0  0  0  3           0  0  0
   -4.1072   -0.0143    0.0774 N   0  0  0  0  0  3           0  0  0
    1.4049   -0.0000    0.0000 N   0  0  0  0  0  3           0  0  0
   -2.6923   -0.0265   -2.3860 N   0  0  0  0  0  3           0  0  0
    1.4764   -0.4866   -6.3123 N   0  0  0  0  0  3           0  0  0
   -1.9706   -0.0005    1.2034 C   0  0  0  0  0  4           0  0  0
    0.0000    0.0000    0.0000 C   0  0  0  0  0  4           0  0  0
   -2.0290    0.0165   -1.1598 C   0  0  0  0  0  4           0  0  0
   -2.7366    0.0123    0.0420 C   0  0  0  0  0  4           0  0  0
    2.3161    0.0000   -1.0589 C   0  0  0  0  0  4           0  0  0
    2.9712    0.5784   -3.3470 C   0  0  0  0  0  4           0  0  0
    2.0326    0.5919   -2.3011 C   0  0  0  0  0  4           0  0  0
    3.5657   -0.6141   -0.8859 C   0  0  0  0  0  4           0  0  0
    4.2059   -0.0497   -3.1462 C   0  0  0  0  0  4           0  0  0
    4.5019   -0.6409   -1.9201 C   0  0  0  0  0  4           0  0  0
   -1.7905   -0.0393    3.5586 C   0  0  0  0  0  4           0  0  0
    1.9912    0.2558   -5.5837 C   0  0  0  0  0  4           0  0  0
    2.6423    1.1988   -4.6739 C   0  0  0  0  0  4           0  0  0
   -2.6360   -0.0605    4.8306 C   0  0  1  0  0  4           0  0  0
   -3.5425   -1.3022    4.8811 C   0  0  0  0  0  4           0  0  0
   -1.7376    0.0059    6.0733 C   0  0  0  0  0  4           0  0  0
   -4.3524   -1.3579    6.1750 C   0  0  0  0  0  4           0  0  0
   -2.5522   -0.0485    7.3631 C   0  0  0  0  0  4           0  0  0
   -3.4567   -1.2755    7.4067 C   0  0  0  0  0  4           0  0  0
  1  5  2  0     0  0
  2  9  1  0     0  0
  2 19  1  0     0  0
  3  9  2  0     0  0
  3 10  1  0     0  0
  4 10  2  0     0  0
  4 11  1  0     0  0
  5 12  1  0     0  0
  6 10  1  0     0  0
  6 13  1  0     0  0
  7 11  1  0     0  0
  8 20  3  0     0  0
  9 12  1  0     0  0
 11 12  2  0     0  0
 13 15  1  0     0  0
 13 16  2  0     0  0
 14 15  2  0     0  0
 14 17  1  0     0  0
 14 21  1  0     0  0
 16 18  1  0     0  0
 17 18  2  0     0  0
 19 22  1  0     0  0
 20 21  1  0     0  0
 22 23  1  0     0  0
 22 24  1  0     0  0
 23 25  1  0     0  0
 24 26  1  0     0  0
 25 27  1  0     0  0
 26 27  1  0     0  0
M  END
> <Compound >
2

> <standard_type>
pIC50

> <# Confs.>
25

> <canonical_smiles>
N#CCC1=CC(NC2=NC(N)=C(N=O)C(OCC3CCCCC3)=N2)=CC=C1

> <standard_relation>
=

> <predicted_activity_value>
7.527243550682788

> <actual_activity_value>
7.481486060122112

> <Publication ID>
nan

> <standard_units>
nM

> hash
17599172884970068713

$$$$
1
XXILIB    08252103513D 0   0.00000     0.00000

 27 29  0     1  0            999 V2000
   -4.6013    0.5742   -0.8922 O   0  0  0  0  0  2           0  0  0
   -2.6441   -0.0207    2.4148 O   0  0  0  0  0  2           0  0  0
   -0.6185    0.0000    1.1993 N   0  0  0  0  0  3           0  0  0
   -0.6724   -0.0018   -1.1766 N   0  0  0  0  0  3           0  0  0
   -4.1072   -0.0143    0.0774 N   0  0  0  0  0  3           0  0  0
    1.4049    0.0000   -0.0000 N   0  0  0  0  0  3           0  0  0
   -2.6923   -0.0265   -2.3860 N   0  0  0  0  0  3           0  0  0
    1.5541   -0.4258    6.3758 N   0  0  0  0  0  3           0  0  0
   -1.9706   -0.0005    1.2034 C   0  0  0  0  0  4           0  0  0
    0.0000    0.0000    0.0000 C   0  0  0  0  0  4           0  0  0
   -2.0290    0.0165   -1.1598 C   0  0  0  0  0  4           0  0  0
   -2.7366    0.0123    0.0420 C   0  0  0  0  0  4           0  0  0
    2.3161    0.0000    1.0589 C   0  0  0  0  0  4           0  0  0
    2.9689    0.5733    3.3489 C   0  0  0  0  0  4           0  0  0
    2.0326    0.5919    2.3011 C   0  0  0  0  0  4           0  0  0
    3.5671   -0.6109    0.8847 C   0  0  0  0  0  4           0  0  0
    4.2116   -0.0365    3.1412 C   0  0  0  0  0  4           0  0  0
    4.5076   -0.6279    1.9152 C   0  0  0  0  0  4           0  0  0
   -1.7905   -0.0393    3.5586 C   0  0  0  0  0  4           0  0  0
    2.0426    0.3020    5.6152 C   0  0  0  0  0  4           0  0  0
    2.6553    1.2285    4.6627 C   0  0  0  0  0  4           0  0  0
   -2.6360   -0.0605    4.8306 C   0  0  1  0  0  4           0  0  0
   -3.5425   -1.3022    4.8811 C   0  0  0  0  0  4           0  0  0
   -1.7376    0.0059    6.0733 C   0  0  0  0  0  4           0  0  0
   -4.3524   -1.3579    6.1750 C   0  0  0  0  0  4           0  0  0
   -2.5522   -0.0485    7.3631 C   0  0  0  0  0  4           0  0  0
   -3.4567   -1.2755    7.4067 C   0  0  0  0  0  4           0  0  0
  1  5  2  0     0  0
  2  9  1  0     0  0
  2 19  1  0     0  0
  3  9  2  0     0  0
  3 10  1  0     0  0
  4 10  2  0     0  0
  4 11  1  0     0  0
  5 12  1  0     0  0
  6 10  1  0     0  0
  6 13  1  0     0  0
  7 11  1  0     0  0
  8 20  3  0     0  0
  9 12  1  0     0  0
 11 12  2  0     0  0
 13 15  1  0     0  0
 13 16  2  0     0  0
 14 15  2  0     0  0
 14 17  1  0     0  0
 14 21  1  0     0  0
 16 18  1  0     0  0
 17 18  2  0     0  0
 19 22  1  0     0  0
 20 21  1  0     0  0
 22 23  1  0     0  0
 22 24  1  0     0  0
 23 25  1  0     0  0
 24 26  1  0     0  0
 25 27  1  0     0  0
 26 27  1  0     0  0
M  END
> <Compound >
2

> <standard_type>
pIC50

> <# Confs.>
25

> <canonical_smiles>
N#CCC1=CC(NC2=NC(N)=C(N=O)C(OCC3CCCCC3)=N2)=CC=C1

> <standard_relation>
=

> <predicted_activity_value>
7.527243550682788

> <actual_activity_value>
7.481486060122112

> <Publication ID>
nan

> <standard_units>
nM

> hash
17599172884970068713

$$$$
1
XXILIB    08252103513D 0   0.00000     0.00000

 27 29  0     1  0            999 V2000
   -4.6013    0.5742   -0.8922 O   0  0  0  0  0  2           0  0  0
   -2.6441   -0.0207    2.4148 O   0  0  0  0  0  2           0  0  0
   -0.6185    0.0000    1.1993 N   0  0  0  0  0  3           0  0  0
   -0.6724   -0.0018   -1.1766 N   0  0  0  0  0  3           0  0  0
   -4.1072   -0.0143    0.0774 N   0  0  0  0  0  3           0  0  0
    1.4049   -0.0000    0.0000 N   0  0  0  0  0  3           0  0  0
   -2.6923   -0.0265   -2.3860 N   0  0  0  0  0  3           0  0  0
    3.3669    3.7166   -4.8158 N   0  0  0  0  0  3           0  0  0
   -1.9706   -0.0005    1.2034 C   0  0  0  0  0  4           0  0  0
    0.0000    0.0000    0.0000 C   0  0  0  0  0  4           0  0  0
   -2.0290    0.0165   -1.1598 C   0  0  0  0  0  4           0  0  0
   -2.7366    0.0123    0.0420 C   0  0  0  0  0  4           0  0  0
    2.3161    0.0000   -1.0589 C   0  0  0  0  0  4           0  0  0
    2.9712    0.5784   -3.3470 C   0  0  0  0  0  4           0  0  0
    2.0326    0.5919   -2.3011 C   0  0  0  0  0  4           0  0  0
    3.5657   -0.6141   -0.8859 C   0  0  0  0  0  4           0  0  0
    4.2059   -0.0497   -3.1462 C   0  0  0  0  0  4           0  0  0
    4.5019   -0.6409   -1.9201 C   0  0  0  0  0  4           0  0  0
   -1.7905   -0.0393    3.5586 C   0  0  0  0  0  4           0  0  0
    3.0493    2.6023   -4.7489 C   0  0  0  0  0  4           0  0  0
    2.6423    1.1988   -4.6739 C   0  0  0  0  0  4           0  0  0
   -2.6360   -0.0605    4.8306 C   0  0  1  0  0  4           0  0  0
   -3.5425   -1.3022    4.8811 C   0  0  0  0  0  4           0  0  0
   -1.7376    0.0059    6.0733 C   0  0  0  0  0  4           0  0  0
   -4.3524   -1.3579    6.1750 C   0  0  0  0  0  4           0  0  0
   -2.5522   -0.0485    7.3631 C   0  0  0  0  0  4           0  0  0
   -3.4567   -1.2755    7.4067 C   0  0  0  0  0  4           0  0  0
  1  5  2  0     0  0
  2  9  1  0     0  0
  2 19  1  0     0  0
  3  9  2  0     0  0
  3 10  1  0     0  0
  4 10  2  0     0  0
  4 11  1  0     0  0
  5 12  1  0     0  0
  6 10  1  0     0  0
  6 13  1  0     0  0
  7 11  1  0     0  0
  8 20  3  0     0  0
  9 12  1  0     0  0
 11 12  2  0     0  0
 13 15  1  0     0  0
 13 16  2  0     0  0
 14 15  2  0     0  0
 14 17  1  0     0  0
 14 21  1  0     0  0
 16 18  1  0     0  0
 17 18  2  0     0  0
 19 22  1  0     0  0
 20 21  1  0     0  0
 22 23  1  0     0  0
 22 24  1  0     0  0
 23 25  1  0     0  0
 24 26  1  0     0  0
 25 27  1  0     0  0
 26 27  1  0     0  0
M  END
> <Compound >
2

> <standard_type>
pIC50

> <# Confs.>
25

> <canonical_smiles>
N#CCC1=CC(NC2=NC(N)=C(N=O)C(OCC3CCCCC3)=N2)=CC=C1

> <standard_relation>
=

> <predicted_activity_value>
7.527243550682788

> <actual_activity_value>
7.481486060122112

> <Publication ID>
nan

> <standard_units>
nM

> hash
17599172884970068713

$$$$
1
XXILIB    08252103513D 0   0.00000     0.00000

 27 29  0     1  0            999 V2000
   -4.6013    0.5742   -0.8922 O   0  0  0  0  0  2           0  0  0
   -2.6441   -0.0207    2.4148 O   0  0  0  0  0  2           0  0  0
   -0.6185    0.0000    1.1993 N   0  0  0  0  0  3           0  0  0
   -0.6724   -0.0018   -1.1766 N   0  0  0  0  0  3           0  0  0
   -4.1072   -0.0143    0.0774 N   0  0  0  0  0  3           0  0  0
    1.4049   -0.0000    0.0000 N   0  0  0  0  0  3           0  0  0
   -2.6923   -0.0265   -2.3860 N   0  0  0  0  0  3           0  0  0
    1.5541    0.4258   -6.3758 N   0  0  0  0  0  3           0  0  0
   -1.9706   -0.0005    1.2034 C   0  0  0  0  0  4           0  0  0
    0.0000    0.0000    0.0000 C   0  0  0  0  0  4           0  0  0
   -2.0290    0.0165   -1.1598 C   0  0  0  0  0  4           0  0  0
   -2.7366    0.0123    0.0420 C   0  0  0  0  0  4           0  0  0
    2.3161    0.0000   -1.0589 C   0  0  0  0  0  4           0  0  0
    2.9689   -0.5733   -3.3489 C   0  0  0  0  0  4           0  0  0
    2.0326   -0.5919   -2.3011 C   0  0  0  0  0  4           0  0  0
    3.5671    0.6109   -0.8847 C   0  0  0  0  0  4           0  0  0
    4.2116    0.0365   -3.1412 C   0  0  0  0  0  4           0  0  0
    4.5076    0.6279   -1.9152 C   0  0  0  0  0  4           0  0  0
   -1.7905   -0.0393    3.5586 C   0  0  0  0  0  4           0  0  0
    2.0426   -0.3020   -5.6152 C   0  0  0  0  0  4           0  0  0
    2.6553   -1.2285   -4.6627 C   0  0  0  0  0  4           0  0  0
   -2.6360   -0.0605    4.8306 C   0  0  1  0  0  4           0  0  0
   -1.7536   -0.0810    6.0905 C   0  0  0  0  0  4           0  0  0
   -3.5935    1.1386    4.8586 C   0  0  0  0  0  4           0  0  0
   -2.5915   -0.0489    7.3673 C   0  0  0  0  0  4           0  0  0
   -4.4293    1.1647    6.1358 C   0  0  0  0  0  4           0  0  0
   -3.5527    1.1353    7.3832 C   0  0  0  0  0  4           0  0  0
  1  5  2  0     0  0
  2  9  1  0     0  0
  2 19  1  0     0  0
  3  9  2  0     0  0
  3 10  1  0     0  0
  4 10  2  0     0  0
  4 11  1  0     0  0
  5 12  1  0     0  0
  6 10  1  0     0  0
  6 13  1  0     0  0
  7 11  1  0     0  0
  8 20  3  0     0  0
  9 12  1  0     0  0
 11 12  2  0     0  0
 13 15  1  0     0  0
 13 16  2  0     0  0
 14 15  2  0     0  0
 14 17  1  0     0  0
 14 21  1  0     0  0
 16 18  1  0     0  0
 17 18  2  0     0  0
 19 22  1  0     0  0
 20 21  1  0     0  0
 22 23  1  0     0  0
 22 24  1  0     0  0
 23 25  1  0     0  0
 24 26  1  0     0  0
 25 27  1  0     0  0
 26 27  1  0     0  0
M  END
> <Compound >
2

> <standard_type>
pIC50

> <# Confs.>
25

> <canonical_smiles>
N#CCC1=CC(NC2=NC(N)=C(N=O)C(OCC3CCCCC3)=N2)=CC=C1

> <standard_relation>
=

> <predicted_activity_value>
7.527243550682788

> <actual_activity_value>
7.481486060122112

> <Publication ID>
nan

> <standard_units>
nM

> hash
17599172884970068713

$$$$
1
XXILIB    08252103513D 0   0.00000     0.00000

 27 29  0     1  0            999 V2000
   -4.6013    0.5742   -0.8922 O   0  0  0  0  0  2           0  0  0
   -2.6441   -0.0207    2.4148 O   0  0  0  0  0  2           0  0  0
   -0.6185    0.0000    1.1993 N   0  0  0  0  0  3           0  0  0
   -0.6724   -0.0018   -1.1766 N   0  0  0  0  0  3           0  0  0
   -4.1072   -0.0143    0.0774 N   0  0  0  0  0  3           0  0  0
    1.4049   -0.0000    0.0000 N   0  0  0  0  0  3           0  0  0
   -2.6923   -0.0265   -2.3860 N   0  0  0  0  0  3           0  0  0
    1.5541    0.4258   -6.3758 N   0  0  0  0  0  3           0  0  0
   -1.9706   -0.0005    1.2034 C   0  0  0  0  0  4           0  0  0
    0.0000    0.0000    0.0000 C   0  0  0  0  0  4           0  0  0
   -2.0290    0.0165   -1.1598 C   0  0  0  0  0  4           0  0  0
   -2.7366    0.0123    0.0420 C   0  0  0  0  0  4           0  0  0
    2.3161    0.0000   -1.0589 C   0  0  0  0  0  4           0  0  0
    2.9689   -0.5733   -3.3489 C   0  0  0  0  0  4           0  0  0
    2.0326   -0.5919   -2.3011 C   0  0  0  0  0  4           0  0  0
    3.5671    0.6109   -0.8847 C   0  0  0  0  0  4           0  0  0
    4.2116    0.0365   -3.1412 C   0  0  0  0  0  4           0  0  0
    4.5076    0.6279   -1.9152 C   0  0  0  0  0  4           0  0  0
   -1.7905   -0.0393    3.5586 C   0  0  0  0  0  4           0  0  0
    2.0426   -0.3020   -5.6152 C   0  0  0  0  0  4           0  0  0
    2.6553   -1.2285   -4.6627 C   0  0  0  0  0  4           0  0  0
   -2.6360   -0.0605    4.8306 C   0  0  1  0  0  4           0  0  0
   -3.5434    1.1782    4.9220 C   0  0  0  0  0  4           0  0  0
   -3.4678   -1.3484    4.9006 C   0  0  0  0  0  4           0  0  0
   -4.4303    1.1380    6.1649 C   0  0  0  0  0  4           0  0  0
   -4.3509   -1.3839    6.1453 C   0  0  0  0  0  4           0  0  0
   -5.2430   -0.1506    6.2382 C   0  0  0  0  0  4           0  0  0
  1  5  2  0     0  0
  2  9  1  0     0  0
  2 19  1  0     0  0
  3  9  2  0     0  0
  3 10  1  0     0  0
  4 10  2  0     0  0
  4 11  1  0     0  0
  5 12  1  0     0  0
  6 10  1  0     0  0
  6 13  1  0     0  0
  7 11  1  0     0  0
  8 20  3  0     0  0
  9 12  1  0     0  0
 11 12  2  0     0  0
 13 15  1  0     0  0
 13 16  2  0     0  0
 14 15  2  0     0  0
 14 17  1  0     0  0
 14 21  1  0     0  0
 16 18  1  0     0  0
 17 18  2  0     0  0
 19 22  1  0     0  0
 20 21  1  0     0  0
 22 23  1  0     0  0
 22 24  1  0     0  0
 23 25  1  0     0  0
 24 26  1  0     0  0
 25 27  1  0     0  0
 26 27  1  0     0  0
M  END
> <Compound >
2

> <standard_type>
pIC50

> <# Confs.>
25

> <canonical_smiles>
N#CCC1=CC(NC2=NC(N)=C(N=O)C(OCC3CCCCC3)=N2)=CC=C1

> <standard_relation>
=

> <predicted_activity_value>
7.527243550682788

> <actual_activity_value>
7.481486060122112

> <Publication ID>
nan

> <standard_units>
nM

> hash
17599172884970068713

$$$$
1
XXILIB    08252103513D 0   0.00000     0.00000

 27 29  0     1  0            999 V2000
   -4.6013    0.5742   -0.8922 O   0  0  0  0  0  2           0  0  0
   -2.6441   -0.0207    2.4148 O   0  0  0  0  0  2           0  0  0
   -0.6185    0.0000    1.1993 N   0  0  0  0  0  3           0  0  0
   -0.6724   -0.0018   -1.1766 N   0  0  0  0  0  3           0  0  0
   -4.1072   -0.0143    0.0774 N   0  0  0  0  0  3           0  0  0
    1.4049    0.0000   -0.0000 N   0  0  0  0  0  3           0  0  0
   -2.6923   -0.0265   -2.3860 N   0  0  0  0  0  3           0  0  0
    1.5541   -0.4258    6.3758 N   0  0  0  0  0  3           0  0  0
   -1.9706   -0.0005    1.2034 C   0  0  0  0  0  4           0  0  0
    0.0000    0.0000    0.0000 C   0  0  0  0  0  4           0  0  0
   -2.0290    0.0165   -1.1598 C   0  0  0  0  0  4           0  0  0
   -2.7366    0.0123    0.0420 C   0  0  0  0  0  4           0  0  0
    2.3161    0.0000    1.0589 C   0  0  0  0  0  4           0  0  0
    2.9689    0.5733    3.3489 C   0  0  0  0  0  4           0  0  0
    2.0326    0.5919    2.3011 C   0  0  0  0  0  4           0  0  0
    3.5671   -0.6109    0.8847 C   0  0  0  0  0  4           0  0  0
    4.2116   -0.0365    3.1412 C   0  0  0  0  0  4           0  0  0
    4.5076   -0.6279    1.9152 C   0  0  0  0  0  4           0  0  0
   -1.7905   -0.0393    3.5586 C   0  0  0  0  0  4           0  0  0
    2.0426    0.3020    5.6152 C   0  0  0  0  0  4           0  0  0
    2.6553    1.2285    4.6627 C   0  0  0  0  0  4           0  0  0
   -2.6360   -0.0605    4.8306 C   0  0  1  0  0  4           0  0  0
   -1.7536   -0.0810    6.0905 C   0  0  0  0  0  4           0  0  0
   -3.5935    1.1386    4.8586 C   0  0  0  0  0  4           0  0  0
   -2.5915   -0.0489    7.3673 C   0  0  0  0  0  4           0  0  0
   -4.4293    1.1647    6.1358 C   0  0  0  0  0  4           0  0  0
   -3.5527    1.1353    7.3832 C   0  0  0  0  0  4           0  0  0
  1  5  2  0     0  0
  2  9  1  0     0  0
  2 19  1  0     0  0
  3  9  2  0     0  0
  3 10  1  0     0  0
  4 10  2  0     0  0
  4 11  1  0     0  0
  5 12  1  0     0  0
  6 10  1  0     0  0
  6 13  1  0     0  0
  7 11  1  0     0  0
  8 20  3  0     0  0
  9 12  1  0     0  0
 11 12  2  0     0  0
 13 15  1  0     0  0
 13 16  2  0     0  0
 14 15  2  0     0  0
 14 17  1  0     0  0
 14 21  1  0     0  0
 16 18  1  0     0  0
 17 18  2  0     0  0
 19 22  1  0     0  0
 20 21  1  0     0  0
 22 23  1  0     0  0
 22 24  1  0     0  0
 23 25  1  0     0  0
 24 26  1  0     0  0
 25 27  1  0     0  0
 26 27  1  0     0  0
M  END
> <Compound >
2

> <standard_type>
pIC50

> <# Confs.>
25

> <canonical_smiles>
N#CCC1=CC(NC2=NC(N)=C(N=O)C(OCC3CCCCC3)=N2)=CC=C1

> <standard_relation>
=

> <predicted_activity_value>
7.527243550682788

> <actual_activity_value>
7.481486060122112

> <Publication ID>
nan

> <standard_units>
nM

> hash
17599172884970068713

$$$$
1
XXILIB    08252103513D 0   0.00000     0.00000

 27 29  0     1  0            999 V2000
   -4.6013    0.5742   -0.8922 O   0  0  0  0  0  2           0  0  0
   -2.6441   -0.0207    2.4148 O   0  0  0  0  0  2           0  0  0
   -0.6185    0.0000    1.1993 N   0  0  0  0  0  3           0  0  0
   -0.6724   -0.0018   -1.1766 N   0  0  0  0  0  3           0  0  0
   -4.1072   -0.0143    0.0774 N   0  0  0  0  0  3           0  0  0
    1.4049    0.0000   -0.0000 N   0  0  0  0  0  3           0  0  0
   -2.6923   -0.0265   -2.3860 N   0  0  0  0  0  3           0  0  0
    1.4764    0.4866    6.3123 N   0  0  0  0  0  3           0  0  0
   -1.9706   -0.0005    1.2034 C   0  0  0  0  0  4           0  0  0
    0.0000    0.0000    0.0000 C   0  0  0  0  0  4           0  0  0
   -2.0290    0.0165   -1.1598 C   0  0  0  0  0  4           0  0  0
   -2.7366    0.0123    0.0420 C   0  0  0  0  0  4           0  0  0
    2.3161   -0.0000    1.0589 C   0  0  0  0  0  4           0  0  0
    2.9712   -0.5784    3.3470 C   0  0  0  0  0  4           0  0  0
    2.0326   -0.5919    2.3011 C   0  0  0  0  0  4           0  0  0
    3.5657    0.6141    0.8859 C   0  0  0  0  0  4           0  0  0
    4.2059    0.0497    3.1462 C   0  0  0  0  0  4           0  0  0
    4.5019    0.6409    1.9201 C   0  0  0  0  0  4           0  0  0
   -1.7905   -0.0393    3.5586 C   0  0  0  0  0  4           0  0  0
    1.9912   -0.2558    5.5837 C   0  0  0  0  0  4           0  0  0
    2.6423   -1.1988    4.6739 C   0  0  0  0  0  4           0  0  0
   -2.6360   -0.0605    4.8306 C   0  0  1  0  0  4           0  0  0
   -3.5425   -1.3022    4.8811 C   0  0  0  0  0  4           0  0  0
   -1.7376    0.0059    6.0733 C   0  0  0  0  0  4           0  0  0
   -4.3524   -1.3579    6.1750 C   0  0  0  0  0  4           0  0  0
   -2.5522   -0.0485    7.3631 C   0  0  0  0  0  4           0  0  0
   -3.4567   -1.2755    7.4067 C   0  0  0  0  0  4           0  0  0
  1  5  2  0     0  0
  2  9  1  0     0  0
  2 19  1  0     0  0
  3  9  2  0     0  0
  3 10  1  0     0  0
  4 10  2  0     0  0
  4 11  1  0     0  0
  5 12  1  0     0  0
  6 10  1  0     0  0
  6 13  1  0     0  0
  7 11  1  0     0  0
  8 20  3  0     0  0
  9 12  1  0     0  0
 11 12  2  0     0  0
 13 15  1  0     0  0
 13 16  2  0     0  0
 14 15  2  0     0  0
 14 17  1  0     0  0
 14 21  1  0     0  0
 16 18  1  0     0  0
 17 18  2  0     0  0
 19 22  1  0     0  0
 20 21  1  0     0  0
 22 23  1  0     0  0
 22 24  1  0     0  0
 23 25  1  0     0  0
 24 26  1  0     0  0
 25 27  1  0     0  0
 26 27  1  0     0  0
M  END
> <Compound >
2

> <standard_type>
pIC50

> <# Confs.>
25

> <canonical_smiles>
N#CCC1=CC(NC2=NC(N)=C(N=O)C(OCC3CCCCC3)=N2)=CC=C1

> <standard_relation>
=

> <predicted_activity_value>
7.527243550682788

> <actual_activity_value>
7.481486060122112

> <Publication ID>
nan

> <standard_units>
nM

> hash
17599172884970068713

$$$$
1
XXILIB    08252103513D 0   0.00000     0.00000

 27 29  0     1  0            999 V2000
   -4.6013    0.5742   -0.8922 O   0  0  0  0  0  2           0  0  0
   -2.6441   -0.0207    2.4148 O   0  0  0  0  0  2           0  0  0
   -0.6185    0.0000    1.1993 N   0  0  0  0  0  3           0  0  0
   -0.6724   -0.0018   -1.1766 N   0  0  0  0  0  3           0  0  0
   -4.1072   -0.0143    0.0774 N   0  0  0  0  0  3           0  0  0
    1.4049    0.0000   -0.0000 N   0  0  0  0  0  3           0  0  0
   -2.6923   -0.0265   -2.3860 N   0  0  0  0  0  3           0  0  0
    3.3357    3.7621    4.7123 N   0  0  0  0  0  3           0  0  0
   -1.9706   -0.0005    1.2034 C   0  0  0  0  0  4           0  0  0
    0.0000    0.0000    0.0000 C   0  0  0  0  0  4           0  0  0
   -2.0290    0.0165   -1.1598 C   0  0  0  0  0  4           0  0  0
   -2.7366    0.0123    0.0420 C   0  0  0  0  0  4           0  0  0
    2.3161    0.0000    1.0589 C   0  0  0  0  0  4           0  0  0
    2.9689    0.5733    3.3489 C   0  0  0  0  0  4           0  0  0
    2.0326    0.5919    2.3011 C   0  0  0  0  0  4           0  0  0
    3.5671   -0.6109    0.8847 C   0  0  0  0  0  4           0  0  0
    4.2116   -0.0365    3.1412 C   0  0  0  0  0  4           0  0  0
    4.5076   -0.6279    1.9152 C   0  0  0  0  0  4           0  0  0
   -1.7905   -0.0393    3.5586 C   0  0  0  0  0  4           0  0  0
    3.0352    2.6414    4.6853 C   0  0  0  0  0  4           0  0  0
    2.6553    1.2285    4.6627 C   0  0  0  0  0  4           0  0  0
   -2.6360   -0.0605    4.8306 C   0  0  1  0  0  4           0  0  0
   -3.5425   -1.3022    4.8811 C   0  0  0  0  0  4           0  0  0
   -1.7376    0.0059    6.0733 C   0  0  0  0  0  4           0  0  0
   -4.3524   -1.3579    6.1750 C   0  0  0  0  0  4           0  0  0
   -2.5522   -0.0485    7.3631 C   0  0  0  0  0  4           0  0  0
   -3.4567   -1.2755    7.4067 C   0  0  0  0  0  4           0  0  0
  1  5  2  0     0  0
  2  9  1  0     0  0
  2 19  1  0     0  0
  3  9  2  0     0  0
  3 10  1  0     0  0
  4 10  2  0     0  0
  4 11  1  0     0  0
  5 12  1  0     0  0
  6 10  1  0     0  0
  6 13  1  0     0  0
  7 11  1  0     0  0
  8 20  3  0     0  0
  9 12  1  0     0  0
 11 12  2  0     0  0
 13 15  1  0     0  0
 13 16  2  0     0  0
 14 15  2  0     0  0
 14 17  1  0     0  0
 14 21  1  0     0  0
 16 18  1  0     0  0
 17 18  2  0     0  0
 19 22  1  0     0  0
 20 21  1  0     0  0
 22 23  1  0     0  0
 22 24  1  0     0  0
 23 25  1  0     0  0
 24 26  1  0     0  0
 25 27  1  0     0  0
 26 27  1  0     0  0
M  END
> <Compound >
2

> <standard_type>
pIC50

> <# Confs.>
25

> <canonical_smiles>
N#CCC1=CC(NC2=NC(N)=C(N=O)C(OCC3CCCCC3)=N2)=CC=C1

> <standard_relation>
=

> <predicted_activity_value>
7.527243550682788

> <actual_activity_value>
7.481486060122112

> <Publication ID>
nan

> <standard_units>
nM

> hash
17599172884970068713

$$$$
1
XXILIB    08252103513D 0   0.00000     0.00000

 27 29  0     1  0            999 V2000
   -4.6013    0.5742   -0.8922 O   0  0  0  0  0  2           0  0  0
   -2.6441   -0.0207    2.4148 O   0  0  0  0  0  2           0  0  0
   -0.6185    0.0000    1.1993 N   0  0  0  0  0  3           0  0  0
   -0.6724   -0.0018   -1.1766 N   0  0  0  0  0  3           0  0  0
   -4.1072   -0.0143    0.0774 N   0  0  0  0  0  3           0  0  0
    1.4049   -0.0000    0.0000 N   0  0  0  0  0  3           0  0  0
   -2.6923   -0.0265   -2.3860 N   0  0  0  0  0  3           0  0  0
    3.3357   -3.7621   -4.7123 N   0  0  0  0  0  3           0  0  0
   -1.9706   -0.0005    1.2034 C   0  0  0  0  0  4           0  0  0
    0.0000    0.0000    0.0000 C   0  0  0  0  0  4           0  0  0
   -2.0290    0.0165   -1.1598 C   0  0  0  0  0  4           0  0  0
   -2.7366    0.0123    0.0420 C   0  0  0  0  0  4           0  0  0
    2.3161    0.0000   -1.0589 C   0  0  0  0  0  4           0  0  0
    2.9689   -0.5733   -3.3489 C   0  0  0  0  0  4           0  0  0
    2.0326   -0.5919   -2.3011 C   0  0  0  0  0  4           0  0  0
    3.5671    0.6109   -0.8847 C   0  0  0  0  0  4           0  0  0
    4.2116    0.0365   -3.1412 C   0  0  0  0  0  4           0  0  0
    4.5076    0.6279   -1.9152 C   0  0  0  0  0  4           0  0  0
   -1.7905   -0.0393    3.5586 C   0  0  0  0  0  4           0  0  0
    3.0352   -2.6414   -4.6853 C   0  0  0  0  0  4           0  0  0
    2.6553   -1.2285   -4.6627 C   0  0  0  0  0  4           0  0  0
   -2.6360   -0.0605    4.8306 C   0  0  1  0  0  4           0  0  0
   -1.7536   -0.0810    6.0905 C   0  0  0  0  0  4           0  0  0
   -3.5935    1.1386    4.8586 C   0  0  0  0  0  4           0  0  0
   -2.5915   -0.0489    7.3673 C   0  0  0  0  0  4           0  0  0
   -4.4293    1.1647    6.1358 C   0  0  0  0  0  4           0  0  0
   -3.5527    1.1353    7.3832 C   0  0  0  0  0  4           0  0  0
  1  5  2  0     0  0
  2  9  1  0     0  0
  2 19  1  0     0  0
  3  9  2  0     0  0
  3 10  1  0     0  0
  4 10  2  0     0  0
  4 11  1  0     0  0
  5 12  1  0     0  0
  6 10  1  0     0  0
  6 13  1  0     0  0
  7 11  1  0     0  0
  8 20  3  0     0  0
  9 12  1  0     0  0
 11 12  2  0     0  0
 13 15  1  0     0  0
 13 16  2  0     0  0
 14 15  2  0     0  0
 14 17  1  0     0  0
 14 21  1  0     0  0
 16 18  1  0     0  0
 17 18  2  0     0  0
 19 22  1  0     0  0
 20 21  1  0     0  0
 22 23  1  0     0  0
 22 24  1  0     0  0
 23 25  1  0     0  0
 24 26  1  0     0  0
 25 27  1  0     0  0
 26 27  1  0     0  0
M  END
> <Compound >
2

> <standard_type>
pIC50

> <# Confs.>
25

> <canonical_smiles>
N#CCC1=CC(NC2=NC(N)=C(N=O)C(OCC3CCCCC3)=N2)=CC=C1

> <standard_relation>
=

> <predicted_activity_value>
7.527243550682788

> <actual_activity_value>
7.481486060122112

> <Publication ID>
nan

> <standard_units>
nM

> hash
17599172884970068713

$$$$
1
XXILIB    08252103513D 0   0.00000     0.00000

 27 29  0     1  0            999 V2000
   -4.6013    0.5742   -0.8922 O   0  0  0  0  0  2           0  0  0
   -2.6441   -0.0207    2.4148 O   0  0  0  0  0  2           0  0  0
   -0.6185    0.0000    1.1993 N   0  0  0  0  0  3           0  0  0
   -0.6724   -0.0018   -1.1766 N   0  0  0  0  0  3           0  0  0
   -4.1072   -0.0143    0.0774 N   0  0  0  0  0  3           0  0  0
    1.4049   -0.0000    0.0000 N   0  0  0  0  0  3           0  0  0
   -2.6923   -0.0265   -2.3860 N   0  0  0  0  0  3           0  0  0
    3.3357   -3.7621   -4.7123 N   0  0  0  0  0  3           0  0  0
   -1.9706   -0.0005    1.2034 C   0  0  0  0  0  4           0  0  0
    0.0000    0.0000    0.0000 C   0  0  0  0  0  4           0  0  0
   -2.0290    0.0165   -1.1598 C   0  0  0  0  0  4           0  0  0
   -2.7366    0.0123    0.0420 C   0  0  0  0  0  4           0  0  0
    2.3161    0.0000   -1.0589 C   0  0  0  0  0  4           0  0  0
    2.9689   -0.5733   -3.3489 C   0  0  0  0  0  4           0  0  0
    2.0326   -0.5919   -2.3011 C   0  0  0  0  0  4           0  0  0
    3.5671    0.6109   -0.8847 C   0  0  0  0  0  4           0  0  0
    4.2116    0.0365   -3.1412 C   0  0  0  0  0  4           0  0  0
    4.5076    0.6279   -1.9152 C   0  0  0  0  0  4           0  0  0
   -1.7905   -0.0393    3.5586 C   0  0  0  0  0  4           0  0  0
    3.0352   -2.6414   -4.6853 C   0  0  0  0  0  4           0  0  0
    2.6553   -1.2285   -4.6627 C   0  0  0  0  0  4           0  0  0
   -2.6360   -0.0605    4.8306 C   0  0  1  0  0  4           0  0  0
   -3.5434    1.1782    4.9220 C   0  0  0  0  0  4           0  0  0
   -3.4678   -1.3484    4.9006 C   0  0  0  0  0  4           0  0  0
   -4.4303    1.1380    6.1649 C   0  0  0  0  0  4           0  0  0
   -4.3509   -1.3839    6.1453 C   0  0  0  0  0  4           0  0  0
   -5.2430   -0.1506    6.2382 C   0  0  0  0  0  4           0  0  0
  1  5  2  0     0  0
  2  9  1  0     0  0
  2 19  1  0     0  0
  3  9  2  0     0  0
  3 10  1  0     0  0
  4 10  2  0     0  0
  4 11  1  0     0  0
  5 12  1  0     0  0
  6 10  1  0     0  0
  6 13  1  0     0  0
  7 11  1  0     0  0
  8 20  3  0     0  0
  9 12  1  0     0  0
 11 12  2  0     0  0
 13 15  1  0     0  0
 13 16  2  0     0  0
 14 15  2  0     0  0
 14 17  1  0     0  0
 14 21  1  0     0  0
 16 18  1  0     0  0
 17 18  2  0     0  0
 19 22  1  0     0  0
 20 21  1  0     0  0
 22 23  1  0     0  0
 22 24  1  0     0  0
 23 25  1  0     0  0
 24 26  1  0     0  0
 25 27  1  0     0  0
 26 27  1  0     0  0
M  END
> <Compound >
2

> <standard_type>
pIC50

> <# Confs.>
25

> <canonical_smiles>
N#CCC1=CC(NC2=NC(N)=C(N=O)C(OCC3CCCCC3)=N2)=CC=C1

> <standard_relation>
=

> <predicted_activity_value>
7.527243550682788

> <actual_activity_value>
7.481486060122112

> <Publication ID>
nan

> <standard_units>
nM

> hash
17599172884970068713

$$$$
1
XXILIB    08252103513D 0   0.00000     0.00000

 27 29  0     1  0            999 V2000
   -4.6013    0.5742   -0.8922 O   0  0  0  0  0  2           0  0  0
   -2.6441   -0.0207    2.4148 O   0  0  0  0  0  2           0  0  0
   -0.6185    0.0000    1.1993 N   0  0  0  0  0  3           0  0  0
   -0.6724   -0.0018   -1.1766 N   0  0  0  0  0  3           0  0  0
   -4.1072   -0.0143    0.0774 N   0  0  0  0  0  3           0  0  0
    1.4049    0.0000   -0.0000 N   0  0  0  0  0  3           0  0  0
   -2.6923   -0.0265   -2.3860 N   0  0  0  0  0  3           0  0  0
    3.3669   -3.7166    4.8158 N   0  0  0  0  0  3           0  0  0
   -1.9706   -0.0005    1.2034 C   0  0  0  0  0  4           0  0  0
    0.0000    0.0000    0.0000 C   0  0  0  0  0  4           0  0  0
   -2.0290    0.0165   -1.1598 C   0  0  0  0  0  4           0  0  0
   -2.7366    0.0123    0.0420 C   0  0  0  0  0  4           0  0  0
    2.3161   -0.0000    1.0589 C   0  0  0  0  0  4           0  0  0
    2.9712   -0.5784    3.3470 C   0  0  0  0  0  4           0  0  0
    2.0326   -0.5919    2.3011 C   0  0  0  0  0  4           0  0  0
    3.5657    0.6141    0.8859 C   0  0  0  0  0  4           0  0  0
    4.2059    0.0497    3.1462 C   0  0  0  0  0  4           0  0  0
    4.5019    0.6409    1.9201 C   0  0  0  0  0  4           0  0  0
   -1.7905   -0.0393    3.5586 C   0  0  0  0  0  4           0  0  0
    3.0493   -2.6023    4.7489 C   0  0  0  0  0  4           0  0  0
    2.6423   -1.1988    4.6739 C   0  0  0  0  0  4           0  0  0
   -2.6360   -0.0605    4.8306 C   0  0  1  0  0  4           0  0  0
   -3.5425   -1.3022    4.8811 C   0  0  0  0  0  4           0  0  0
   -1.7376    0.0059    6.0733 C   0  0  0  0  0  4           0  0  0
   -4.3524   -1.3579    6.1750 C   0  0  0  0  0  4           0  0  0
   -2.5522   -0.0485    7.3631 C   0  0  0  0  0  4           0  0  0
   -3.4567   -1.2755    7.4067 C   0  0  0  0  0  4           0  0  0
  1  5  2  0     0  0
  2  9  1  0     0  0
  2 19  1  0     0  0
  3  9  2  0     0  0
  3 10  1  0     0  0
  4 10  2  0     0  0
  4 11  1  0     0  0
  5 12  1  0     0  0
  6 10  1  0     0  0
  6 13  1  0     0  0
  7 11  1  0     0  0
  8 20  3  0     0  0
  9 12  1  0     0  0
 11 12  2  0     0  0
 13 15  1  0     0  0
 13 16  2  0     0  0
 14 15  2  0     0  0
 14 17  1  0     0  0
 14 21  1  0     0  0
 16 18  1  0     0  0
 17 18  2  0     0  0
 19 22  1  0     0  0
 20 21  1  0     0  0
 22 23  1  0     0  0
 22 24  1  0     0  0
 23 25  1  0     0  0
 24 26  1  0     0  0
 25 27  1  0     0  0
 26 27  1  0     0  0
M  END
> <Compound >
2

> <standard_type>
pIC50

> <# Confs.>
25

> <canonical_smiles>
N#CCC1=CC(NC2=NC(N)=C(N=O)C(OCC3CCCCC3)=N2)=CC=C1

> <standard_relation>
=

> <predicted_activity_value>
7.527243550682788

> <actual_activity_value>
7.481486060122112

> <Publication ID>
nan

> <standard_units>
nM

> hash
17599172884970068713

$$$$
1
XXILIB    08252103513D 0   0.00000     0.00000

 27 29  0     1  0            999 V2000
   -4.6013    0.5742   -0.8922 O   0  0  0  0  0  2           0  0  0
   -2.6441   -0.0207    2.4148 O   0  0  0  0  0  2           0  0  0
   -0.6185    0.0000    1.1993 N   0  0  0  0  0  3           0  0  0
   -0.6724   -0.0018   -1.1766 N   0  0  0  0  0  3           0  0  0
   -4.1072   -0.0143    0.0774 N   0  0  0  0  0  3           0  0  0
    1.4049   -0.0000    0.0000 N   0  0  0  0  0  3           0  0  0
   -2.6923   -0.0265   -2.3860 N   0  0  0  0  0  3           0  0  0
    1.4764   -0.4866   -6.3123 N   0  0  0  0  0  3           0  0  0
   -1.9706   -0.0005    1.2034 C   0  0  0  0  0  4           0  0  0
    0.0000    0.0000    0.0000 C   0  0  0  0  0  4           0  0  0
   -2.0290    0.0165   -1.1598 C   0  0  0  0  0  4           0  0  0
   -2.7366    0.0123    0.0420 C   0  0  0  0  0  4           0  0  0
    2.3161    0.0000   -1.0589 C   0  0  0  0  0  4           0  0  0
    2.9712    0.5784   -3.3470 C   0  0  0  0  0  4           0  0  0
    2.0326    0.5919   -2.3011 C   0  0  0  0  0  4           0  0  0
    3.5657   -0.6141   -0.8859 C   0  0  0  0  0  4           0  0  0
    4.2059   -0.0497   -3.1462 C   0  0  0  0  0  4           0  0  0
    4.5019   -0.6409   -1.9201 C   0  0  0  0  0  4           0  0  0
   -1.7905   -0.0393    3.5586 C   0  0  0  0  0  4           0  0  0
    1.9912    0.2558   -5.5837 C   0  0  0  0  0  4           0  0  0
    2.6423    1.1988   -4.6739 C   0  0  0  0  0  4           0  0  0
   -2.6360   -0.0605    4.8306 C   0  0  1  0  0  4           0  0  0
   -1.7536   -0.0810    6.0905 C   0  0  0  0  0  4           0  0  0
   -3.5935    1.1386    4.8586 C   0  0  0  0  0  4           0  0  0
   -2.5915   -0.0489    7.3673 C   0  0  0  0  0  4           0  0  0
   -4.4293    1.1647    6.1358 C   0  0  0  0  0  4           0  0  0
   -3.5527    1.1353    7.3832 C   0  0  0  0  0  4           0  0  0
  1  5  2  0     0  0
  2  9  1  0     0  0
  2 19  1  0     0  0
  3  9  2  0     0  0
  3 10  1  0     0  0
  4 10  2  0     0  0
  4 11  1  0     0  0
  5 12  1  0     0  0
  6 10  1  0     0  0
  6 13  1  0     0  0
  7 11  1  0     0  0
  8 20  3  0     0  0
  9 12  1  0     0  0
 11 12  2  0     0  0
 13 15  1  0     0  0
 13 16  2  0     0  0
 14 15  2  0     0  0
 14 17  1  0     0  0
 14 21  1  0     0  0
 16 18  1  0     0  0
 17 18  2  0     0  0
 19 22  1  0     0  0
 20 21  1  0     0  0
 22 23  1  0     0  0
 22 24  1  0     0  0
 23 25  1  0     0  0
 24 26  1  0     0  0
 25 27  1  0     0  0
 26 27  1  0     0  0
M  END
> <Compound >
2

> <standard_type>
pIC50

> <# Confs.>
25

> <canonical_smiles>
N#CCC1=CC(NC2=NC(N)=C(N=O)C(OCC3CCCCC3)=N2)=CC=C1

> <standard_relation>
=

> <predicted_activity_value>
7.527243550682788

> <actual_activity_value>
7.481486060122112

> <Publication ID>
nan

> <standard_units>
nM

> hash
17599172884970068713

$$$$
1
XXILIB    08252103513D 0   0.00000     0.00000

 27 29  0     1  0            999 V2000
   -4.6013    0.5742   -0.8922 O   0  0  0  0  0  2           0  0  0
   -2.6441   -0.0207    2.4148 O   0  0  0  0  0  2           0  0  0
   -0.6185    0.0000    1.1993 N   0  0  0  0  0  3           0  0  0
   -0.6724   -0.0018   -1.1766 N   0  0  0  0  0  3           0  0  0
   -4.1072   -0.0143    0.0774 N   0  0  0  0  0  3           0  0  0
    1.4049   -0.0000    0.0000 N   0  0  0  0  0  3           0  0  0
   -2.6923   -0.0265   -2.3860 N   0  0  0  0  0  3           0  0  0
    1.4764   -0.4866   -6.3123 N   0  0  0  0  0  3           0  0  0
   -1.9706   -0.0005    1.2034 C   0  0  0  0  0  4           0  0  0
    0.0000    0.0000    0.0000 C   0  0  0  0  0  4           0  0  0
   -2.0290    0.0165   -1.1598 C   0  0  0  0  0  4           0  0  0
   -2.7366    0.0123    0.0420 C   0  0  0  0  0  4           0  0  0
    2.3161    0.0000   -1.0589 C   0  0  0  0  0  4           0  0  0
    2.9712    0.5784   -3.3470 C   0  0  0  0  0  4           0  0  0
    2.0326    0.5919   -2.3011 C   0  0  0  0  0  4           0  0  0
    3.5657   -0.6141   -0.8859 C   0  0  0  0  0  4           0  0  0
    4.2059   -0.0497   -3.1462 C   0  0  0  0  0  4           0  0  0
    4.5019   -0.6409   -1.9201 C   0  0  0  0  0  4           0  0  0
   -1.7905   -0.0393    3.5586 C   0  0  0  0  0  4           0  0  0
    1.9912    0.2558   -5.5837 C   0  0  0  0  0  4           0  0  0
    2.6423    1.1988   -4.6739 C   0  0  0  0  0  4           0  0  0
   -2.6360   -0.0605    4.8306 C   0  0  1  0  0  4           0  0  0
   -3.5434    1.1782    4.9220 C   0  0  0  0  0  4           0  0  0
   -3.4678   -1.3484    4.9006 C   0  0  0  0  0  4           0  0  0
   -4.4303    1.1380    6.1649 C   0  0  0  0  0  4           0  0  0
   -4.3509   -1.3839    6.1453 C   0  0  0  0  0  4           0  0  0
   -5.2430   -0.1506    6.2382 C   0  0  0  0  0  4           0  0  0
  1  5  2  0     0  0
  2  9  1  0     0  0
  2 19  1  0     0  0
  3  9  2  0     0  0
  3 10  1  0     0  0
  4 10  2  0     0  0
  4 11  1  0     0  0
  5 12  1  0     0  0
  6 10  1  0     0  0
  6 13  1  0     0  0
  7 11  1  0     0  0
  8 20  3  0     0  0
  9 12  1  0     0  0
 11 12  2  0     0  0
 13 15  1  0     0  0
 13 16  2  0     0  0
 14 15  2  0     0  0
 14 17  1  0     0  0
 14 21  1  0     0  0
 16 18  1  0     0  0
 17 18  2  0     0  0
 19 22  1  0     0  0
 20 21  1  0     0  0
 22 23  1  0     0  0
 22 24  1  0     0  0
 23 25  1  0     0  0
 24 26  1  0     0  0
 25 27  1  0     0  0
 26 27  1  0     0  0
M  END
> <Compound >
2

> <standard_type>
pIC50

> <# Confs.>
25

> <canonical_smiles>
N#CCC1=CC(NC2=NC(N)=C(N=O)C(OCC3CCCCC3)=N2)=CC=C1

> <standard_relation>
=

> <predicted_activity_value>
7.527243550682788

> <actual_activity_value>
7.481486060122112

> <Publication ID>
nan

> <standard_units>
nM

> hash
17599172884970068713

$$$$
1
XXILIB    08252103513D 0   0.00000     0.00000

 27 29  0     1  0            999 V2000
   -4.6013    0.5742   -0.8922 O   0  0  0  0  0  2           0  0  0
   -2.6441   -0.0207    2.4148 O   0  0  0  0  0  2           0  0  0
   -0.6185    0.0000    1.1993 N   0  0  0  0  0  3           0  0  0
   -0.6724   -0.0018   -1.1766 N   0  0  0  0  0  3           0  0  0
   -4.1072   -0.0143    0.0774 N   0  0  0  0  0  3           0  0  0
    1.4049   -0.0000    0.0000 N   0  0  0  0  0  3           0  0  0
   -2.6923   -0.0265   -2.3860 N   0  0  0  0  0  3           0  0  0
    3.3669    3.7166   -4.8158 N   0  0  0  0  0  3           0  0  0
   -1.9706   -0.0005    1.2034 C   0  0  0  0  0  4           0  0  0
    0.0000    0.0000    0.0000 C   0  0  0  0  0  4           0  0  0
   -2.0290    0.0165   -1.1598 C   0  0  0  0  0  4           0  0  0
   -2.7366    0.0123    0.0420 C   0  0  0  0  0  4           0  0  0
    2.3161    0.0000   -1.0589 C   0  0  0  0  0  4           0  0  0
    2.9712    0.5784   -3.3470 C   0  0  0  0  0  4           0  0  0
    2.0326    0.5919   -2.3011 C   0  0  0  0  0  4           0  0  0
    3.5657   -0.6141   -0.8859 C   0  0  0  0  0  4           0  0  0
    4.2059   -0.0497   -3.1462 C   0  0  0  0  0  4           0  0  0
    4.5019   -0.6409   -1.9201 C   0  0  0  0  0  4           0  0  0
   -1.7905   -0.0393    3.5586 C   0  0  0  0  0  4           0  0  0
    3.0493    2.6023   -4.7489 C   0  0  0  0  0  4           0  0  0
    2.6423    1.1988   -4.6739 C   0  0  0  0  0  4           0  0  0
   -2.6360   -0.0605    4.8306 C   0  0  1  0  0  4           0  0  0
   -1.7536   -0.0810    6.0905 C   0  0  0  0  0  4           0  0  0
   -3.5935    1.1386    4.8586 C   0  0  0  0  0  4           0  0  0
   -2.5915   -0.0489    7.3673 C   0  0  0  0  0  4           0  0  0
   -4.4293    1.1647    6.1358 C   0  0  0  0  0  4           0  0  0
   -3.5527    1.1353    7.3832 C   0  0  0  0  0  4           0  0  0
  1  5  2  0     0  0
  2  9  1  0     0  0
  2 19  1  0     0  0
  3  9  2  0     0  0
  3 10  1  0     0  0
  4 10  2  0     0  0
  4 11  1  0     0  0
  5 12  1  0     0  0
  6 10  1  0     0  0
  6 13  1  0     0  0
  7 11  1  0     0  0
  8 20  3  0     0  0
  9 12  1  0     0  0
 11 12  2  0     0  0
 13 15  1  0     0  0
 13 16  2  0     0  0
 14 15  2  0     0  0
 14 17  1  0     0  0
 14 21  1  0     0  0
 16 18  1  0     0  0
 17 18  2  0     0  0
 19 22  1  0     0  0
 20 21  1  0     0  0
 22 23  1  0     0  0
 22 24  1  0     0  0
 23 25  1  0     0  0
 24 26  1  0     0  0
 25 27  1  0     0  0
 26 27  1  0     0  0
M  END
> <Compound >
2

> <standard_type>
pIC50

> <# Confs.>
25

> <canonical_smiles>
N#CCC1=CC(NC2=NC(N)=C(N=O)C(OCC3CCCCC3)=N2)=CC=C1

> <standard_relation>
=

> <predicted_activity_value>
7.527243550682788

> <actual_activity_value>
7.481486060122112

> <Publication ID>
nan

> <standard_units>
nM

> hash
17599172884970068713

$$$$
1
XXILIB    08252103513D 0   0.00000     0.00000

 27 29  0     1  0            999 V2000
   -4.6013    0.5742   -0.8922 O   0  0  0  0  0  2           0  0  0
   -2.6441   -0.0207    2.4148 O   0  0  0  0  0  2           0  0  0
   -0.6185    0.0000    1.1993 N   0  0  0  0  0  3           0  0  0
   -0.6724   -0.0018   -1.1766 N   0  0  0  0  0  3           0  0  0
   -4.1072   -0.0143    0.0774 N   0  0  0  0  0  3           0  0  0
    1.4049   -0.0000    0.0000 N   0  0  0  0  0  3           0  0  0
   -2.6923   -0.0265   -2.3860 N   0  0  0  0  0  3           0  0  0
    3.3669    3.7166   -4.8158 N   0  0  0  0  0  3           0  0  0
   -1.9706   -0.0005    1.2034 C   0  0  0  0  0  4           0  0  0
    0.0000    0.0000    0.0000 C   0  0  0  0  0  4           0  0  0
   -2.0290    0.0165   -1.1598 C   0  0  0  0  0  4           0  0  0
   -2.7366    0.0123    0.0420 C   0  0  0  0  0  4           0  0  0
    2.3161    0.0000   -1.0589 C   0  0  0  0  0  4           0  0  0
    2.9712    0.5784   -3.3470 C   0  0  0  0  0  4           0  0  0
    2.0326    0.5919   -2.3011 C   0  0  0  0  0  4           0  0  0
    3.5657   -0.6141   -0.8859 C   0  0  0  0  0  4           0  0  0
    4.2059   -0.0497   -3.1462 C   0  0  0  0  0  4           0  0  0
    4.5019   -0.6409   -1.9201 C   0  0  0  0  0  4           0  0  0
   -1.7905   -0.0393    3.5586 C   0  0  0  0  0  4           0  0  0
    3.0493    2.6023   -4.7489 C   0  0  0  0  0  4           0  0  0
    2.6423    1.1988   -4.6739 C   0  0  0  0  0  4           0  0  0
   -2.6360   -0.0605    4.8306 C   0  0  1  0  0  4           0  0  0
   -3.5434    1.1782    4.9220 C   0  0  0  0  0  4           0  0  0
   -3.4678   -1.3484    4.9006 C   0  0  0  0  0  4           0  0  0
   -4.4303    1.1380    6.1649 C   0  0  0  0  0  4           0  0  0
   -4.3509   -1.3839    6.1453 C   0  0  0  0  0  4           0  0  0
   -5.2430   -0.1506    6.2382 C   0  0  0  0  0  4           0  0  0
  1  5  2  0     0  0
  2  9  1  0     0  0
  2 19  1  0     0  0
  3  9  2  0     0  0
  3 10  1  0     0  0
  4 10  2  0     0  0
  4 11  1  0     0  0
  5 12  1  0     0  0
  6 10  1  0     0  0
  6 13  1  0     0  0
  7 11  1  0     0  0
  8 20  3  0     0  0
  9 12  1  0     0  0
 11 12  2  0     0  0
 13 15  1  0     0  0
 13 16  2  0     0  0
 14 15  2  0     0  0
 14 17  1  0     0  0
 14 21  1  0     0  0
 16 18  1  0     0  0
 17 18  2  0     0  0
 19 22  1  0     0  0
 20 21  1  0     0  0
 22 23  1  0     0  0
 22 24  1  0     0  0
 23 25  1  0     0  0
 24 26  1  0     0  0
 25 27  1  0     0  0
 26 27  1  0     0  0
M  END
> <Compound >
2

> <standard_type>
pIC50

> <# Confs.>
25

> <canonical_smiles>
N#CCC1=CC(NC2=NC(N)=C(N=O)C(OCC3CCCCC3)=N2)=CC=C1

> <standard_relation>
=

> <predicted_activity_value>
7.527243550682788

> <actual_activity_value>
7.481486060122112

> <Publication ID>
nan

> <standard_units>
nM

> hash
17599172884970068713

$$$$
1
XXILIB    08252103513D 0   0.00000     0.00000

 27 29  0     1  0            999 V2000
   -4.6013    0.5742   -0.8922 O   0  0  0  0  0  2           0  0  0
   -2.6441   -0.0207    2.4148 O   0  0  0  0  0  2           0  0  0
   -0.6185    0.0000    1.1993 N   0  0  0  0  0  3           0  0  0
   -0.6724   -0.0018   -1.1766 N   0  0  0  0  0  3           0  0  0
   -4.1072   -0.0143    0.0774 N   0  0  0  0  0  3           0  0  0
    1.4049    0.0000   -0.0000 N   0  0  0  0  0  3           0  0  0
   -2.6923   -0.0265   -2.3860 N   0  0  0  0  0  3           0  0  0
    3.3357    3.7621    4.7123 N   0  0  0  0  0  3           0  0  0
   -1.9706   -0.0005    1.2034 C   0  0  0  0  0  4           0  0  0
    0.0000    0.0000    0.0000 C   0  0  0  0  0  4           0  0  0
   -2.0290    0.0165   -1.1598 C   0  0  0  0  0  4           0  0  0
   -2.7366    0.0123    0.0420 C   0  0  0  0  0  4           0  0  0
    2.3161    0.0000    1.0589 C   0  0  0  0  0  4           0  0  0
    2.9689    0.5733    3.3489 C   0  0  0  0  0  4           0  0  0
    2.0326    0.5919    2.3011 C   0  0  0  0  0  4           0  0  0
    3.5671   -0.6109    0.8847 C   0  0  0  0  0  4           0  0  0
    4.2116   -0.0365    3.1412 C   0  0  0  0  0  4           0  0  0
    4.5076   -0.6279    1.9152 C   0  0  0  0  0  4           0  0  0
   -1.7905   -0.0393    3.5586 C   0  0  0  0  0  4           0  0  0
    3.0352    2.6414    4.6853 C   0  0  0  0  0  4           0  0  0
    2.6553    1.2285    4.6627 C   0  0  0  0  0  4           0  0  0
   -2.6360   -0.0605    4.8306 C   0  0  1  0  0  4           0  0  0
   -1.7536   -0.0810    6.0905 C   0  0  0  0  0  4           0  0  0
   -3.5935    1.1386    4.8586 C   0  0  0  0  0  4           0  0  0
   -2.5915   -0.0489    7.3673 C   0  0  0  0  0  4           0  0  0
   -4.4293    1.1647    6.1358 C   0  0  0  0  0  4           0  0  0
   -3.5527    1.1353    7.3832 C   0  0  0  0  0  4           0  0  0
  1  5  2  0     0  0
  2  9  1  0     0  0
  2 19  1  0     0  0
  3  9  2  0     0  0
  3 10  1  0     0  0
  4 10  2  0     0  0
  4 11  1  0     0  0
  5 12  1  0     0  0
  6 10  1  0     0  0
  6 13  1  0     0  0
  7 11  1  0     0  0
  8 20  3  0     0  0
  9 12  1  0     0  0
 11 12  2  0     0  0
 13 15  1  0     0  0
 13 16  2  0     0  0
 14 15  2  0     0  0
 14 17  1  0     0  0
 14 21  1  0     0  0
 16 18  1  0     0  0
 17 18  2  0     0  0
 19 22  1  0     0  0
 20 21  1  0     0  0
 22 23  1  0     0  0
 22 24  1  0     0  0
 23 25  1  0     0  0
 24 26  1  0     0  0
 25 27  1  0     0  0
 26 27  1  0     0  0
M  END
> <Compound >
2

> <standard_type>
pIC50

> <# Confs.>
25

> <canonical_smiles>
N#CCC1=CC(NC2=NC(N)=C(N=O)C(OCC3CCCCC3)=N2)=CC=C1

> <standard_relation>
=

> <predicted_activity_value>
7.527243550682788

> <actual_activity_value>
7.481486060122112

> <Publication ID>
nan

> <standard_units>
nM

> hash
17599172884970068713

$$$$
1
XXILIB    08252103513D 0   0.00000     0.00000

 27 29  0     1  0            999 V2000
   -4.6013    0.5742   -0.8922 O   0  0  0  0  0  2           0  0  0
   -2.6441   -0.0207    2.4148 O   0  0  0  0  0  2           0  0  0
   -0.6185    0.0000    1.1993 N   0  0  0  0  0  3           0  0  0
   -0.6724   -0.0018   -1.1766 N   0  0  0  0  0  3           0  0  0
   -4.1072   -0.0143    0.0774 N   0  0  0  0  0  3           0  0  0
    1.4049    0.0000   -0.0000 N   0  0  0  0  0  3           0  0  0
   -2.6923   -0.0265   -2.3860 N   0  0  0  0  0  3           0  0  0
    1.4764    0.4866    6.3123 N   0  0  0  0  0  3           0  0  0
   -1.9706   -0.0005    1.2034 C   0  0  0  0  0  4           0  0  0
    0.0000    0.0000    0.0000 C   0  0  0  0  0  4           0  0  0
   -2.0290    0.0165   -1.1598 C   0  0  0  0  0  4           0  0  0
   -2.7366    0.0123    0.0420 C   0  0  0  0  0  4           0  0  0
    2.3161   -0.0000    1.0589 C   0  0  0  0  0  4           0  0  0
    2.9712   -0.5784    3.3470 C   0  0  0  0  0  4           0  0  0
    2.0326   -0.5919    2.3011 C   0  0  0  0  0  4           0  0  0
    3.5657    0.6141    0.8859 C   0  0  0  0  0  4           0  0  0
    4.2059    0.0497    3.1462 C   0  0  0  0  0  4           0  0  0
    4.5019    0.6409    1.9201 C   0  0  0  0  0  4           0  0  0
   -1.7905   -0.0393    3.5586 C   0  0  0  0  0  4           0  0  0
    1.9912   -0.2558    5.5837 C   0  0  0  0  0  4           0  0  0
    2.6423   -1.1988    4.6739 C   0  0  0  0  0  4           0  0  0
   -2.6360   -0.0605    4.8306 C   0  0  1  0  0  4           0  0  0
   -1.7536   -0.0810    6.0905 C   0  0  0  0  0  4           0  0  0
   -3.5935    1.1386    4.8586 C   0  0  0  0  0  4           0  0  0
   -2.5915   -0.0489    7.3673 C   0  0  0  0  0  4           0  0  0
   -4.4293    1.1647    6.1358 C   0  0  0  0  0  4           0  0  0
   -3.5527    1.1353    7.3832 C   0  0  0  0  0  4           0  0  0
  1  5  2  0     0  0
  2  9  1  0     0  0
  2 19  1  0     0  0
  3  9  2  0     0  0
  3 10  1  0     0  0
  4 10  2  0     0  0
  4 11  1  0     0  0
  5 12  1  0     0  0
  6 10  1  0     0  0
  6 13  1  0     0  0
  7 11  1  0     0  0
  8 20  3  0     0  0
  9 12  1  0     0  0
 11 12  2  0     0  0
 13 15  1  0     0  0
 13 16  2  0     0  0
 14 15  2  0     0  0
 14 17  1  0     0  0
 14 21  1  0     0  0
 16 18  1  0     0  0
 17 18  2  0     0  0
 19 22  1  0     0  0
 20 21  1  0     0  0
 22 23  1  0     0  0
 22 24  1  0     0  0
 23 25  1  0     0  0
 24 26  1  0     0  0
 25 27  1  0     0  0
 26 27  1  0     0  0
M  END
> <Compound >
2

> <standard_type>
pIC50

> <# Confs.>
25

> <canonical_smiles>
N#CCC1=CC(NC2=NC(N)=C(N=O)C(OCC3CCCCC3)=N2)=CC=C1

> <standard_relation>
=

> <predicted_activity_value>
7.527243550682788

> <actual_activity_value>
7.481486060122112

> <Publication ID>
nan

> <standard_units>
nM

> hash
17599172884970068713

$$$$
1
XXILIB    08252103513D 0   0.00000     0.00000

 27 29  0     1  0            999 V2000
   -4.6013    0.5742   -0.8922 O   0  0  0  0  0  2           0  0  0
   -2.6441   -0.0207    2.4148 O   0  0  0  0  0  2           0  0  0
   -0.6185    0.0000    1.1993 N   0  0  0  0  0  3           0  0  0
   -0.6724   -0.0018   -1.1766 N   0  0  0  0  0  3           0  0  0
   -4.1072   -0.0143    0.0774 N   0  0  0  0  0  3           0  0  0
    1.4049    0.0000   -0.0000 N   0  0  0  0  0  3           0  0  0
   -2.6923   -0.0265   -2.3860 N   0  0  0  0  0  3           0  0  0
    3.3669   -3.7166    4.8158 N   0  0  0  0  0  3           0  0  0
   -1.9706   -0.0005    1.2034 C   0  0  0  0  0  4           0  0  0
    0.0000    0.0000    0.0000 C   0  0  0  0  0  4           0  0  0
   -2.0290    0.0165   -1.1598 C   0  0  0  0  0  4           0  0  0
   -2.7366    0.0123    0.0420 C   0  0  0  0  0  4           0  0  0
    2.3161   -0.0000    1.0589 C   0  0  0  0  0  4           0  0  0
    2.9712   -0.5784    3.3470 C   0  0  0  0  0  4           0  0  0
    2.0326   -0.5919    2.3011 C   0  0  0  0  0  4           0  0  0
    3.5657    0.6141    0.8859 C   0  0  0  0  0  4           0  0  0
    4.2059    0.0497    3.1462 C   0  0  0  0  0  4           0  0  0
    4.5019    0.6409    1.9201 C   0  0  0  0  0  4           0  0  0
   -1.7905   -0.0393    3.5586 C   0  0  0  0  0  4           0  0  0
    3.0493   -2.6023    4.7489 C   0  0  0  0  0  4           0  0  0
    2.6423   -1.1988    4.6739 C   0  0  0  0  0  4           0  0  0
   -2.6360   -0.0605    4.8306 C   0  0  1  0  0  4           0  0  0
   -1.7536   -0.0810    6.0905 C   0  0  0  0  0  4           0  0  0
   -3.5935    1.1386    4.8586 C   0  0  0  0  0  4           0  0  0
   -2.5915   -0.0489    7.3673 C   0  0  0  0  0  4           0  0  0
   -4.4293    1.1647    6.1358 C   0  0  0  0  0  4           0  0  0
   -3.5527    1.1353    7.3832 C   0  0  0  0  0  4           0  0  0
  1  5  2  0     0  0
  2  9  1  0     0  0
  2 19  1  0     0  0
  3  9  2  0     0  0
  3 10  1  0     0  0
  4 10  2  0     0  0
  4 11  1  0     0  0
  5 12  1  0     0  0
  6 10  1  0     0  0
  6 13  1  0     0  0
  7 11  1  0     0  0
  8 20  3  0     0  0
  9 12  1  0     0  0
 11 12  2  0     0  0
 13 15  1  0     0  0
 13 16  2  0     0  0
 14 15  2  0     0  0
 14 17  1  0     0  0
 14 21  1  0     0  0
 16 18  1  0     0  0
 17 18  2  0     0  0
 19 22  1  0     0  0
 20 21  1  0     0  0
 22 23  1  0     0  0
 22 24  1  0     0  0
 23 25  1  0     0  0
 24 26  1  0     0  0
 25 27  1  0     0  0
 26 27  1  0     0  0
M  END
> <Compound >
2

> <standard_type>
pIC50

> <# Confs.>
25

> <canonical_smiles>
N#CCC1=CC(NC2=NC(N)=C(N=O)C(OCC3CCCCC3)=N2)=CC=C1

> <standard_relation>
=

> <predicted_activity_value>
7.527243550682788

> <actual_activity_value>
7.481486060122112

> <Publication ID>
nan

> <standard_units>
nM

> hash
17599172884970068713

$$$$
1
XXILIB    08252103513D 0   0.00000     0.00000

 27 29  0     1  0            999 V2000
   -4.6013    0.5742   -0.8922 O   0  0  0  0  0  2           0  0  0
   -2.6441   -0.0207    2.4148 O   0  0  0  0  0  2           0  0  0
   -0.6185    0.0000    1.1993 N   0  0  0  0  0  3           0  0  0
   -0.6724   -0.0018   -1.1766 N   0  0  0  0  0  3           0  0  0
   -4.1072   -0.0143    0.0774 N   0  0  0  0  0  3           0  0  0
    1.4049    0.0000   -0.0000 N   0  0  0  0  0  3           0  0  0
   -2.6923   -0.0265   -2.3860 N   0  0  0  0  0  3           0  0  0
    3.3357    3.7621    4.7123 N   0  0  0  0  0  3           0  0  0
   -1.9706   -0.0005    1.2034 C   0  0  0  0  0  4           0  0  0
    0.0000    0.0000    0.0000 C   0  0  0  0  0  4           0  0  0
   -2.0290    0.0165   -1.1598 C   0  0  0  0  0  4           0  0  0
   -2.7366    0.0123    0.0420 C   0  0  0  0  0  4           0  0  0
    2.3161    0.0000    1.0589 C   0  0  0  0  0  4           0  0  0
    2.9689    0.5733    3.3489 C   0  0  0  0  0  4           0  0  0
    2.0326    0.5919    2.3011 C   0  0  0  0  0  4           0  0  0
    3.5671   -0.6109    0.8847 C   0  0  0  0  0  4           0  0  0
    4.2116   -0.0365    3.1412 C   0  0  0  0  0  4           0  0  0
    4.5076   -0.6279    1.9152 C   0  0  0  0  0  4           0  0  0
   -1.7905   -0.0393    3.5586 C   0  0  0  0  0  4           0  0  0
    3.0352    2.6414    4.6853 C   0  0  0  0  0  4           0  0  0
    2.6553    1.2285    4.6627 C   0  0  0  0  0  4           0  0  0
   -2.6360   -0.0605    4.8306 C   0  0  1  0  0  4           0  0  0
   -3.5434    1.1782    4.9220 C   0  0  0  0  0  4           0  0  0
   -3.4678   -1.3484    4.9006 C   0  0  0  0  0  4           0  0  0
   -4.4303    1.1380    6.1649 C   0  0  0  0  0  4           0  0  0
   -4.3509   -1.3839    6.1453 C   0  0  0  0  0  4           0  0  0
   -5.2430   -0.1506    6.2382 C   0  0  0  0  0  4           0  0  0
  1  5  2  0     0  0
  2  9  1  0     0  0
  2 19  1  0     0  0
  3  9  2  0     0  0
  3 10  1  0     0  0
  4 10  2  0     0  0
  4 11  1  0     0  0
  5 12  1  0     0  0
  6 10  1  0     0  0
  6 13  1  0     0  0
  7 11  1  0     0  0
  8 20  3  0     0  0
  9 12  1  0     0  0
 11 12  2  0     0  0
 13 15  1  0     0  0
 13 16  2  0     0  0
 14 15  2  0     0  0
 14 17  1  0     0  0
 14 21  1  0     0  0
 16 18  1  0     0  0
 17 18  2  0     0  0
 19 22  1  0     0  0
 20 21  1  0     0  0
 22 23  1  0     0  0
 22 24  1  0     0  0
 23 25  1  0     0  0
 24 26  1  0     0  0
 25 27  1  0     0  0
 26 27  1  0     0  0
M  END
> <Compound >
2

> <standard_type>
pIC50

> <# Confs.>
25

> <canonical_smiles>
N#CCC1=CC(NC2=NC(N)=C(N=O)C(OCC3CCCCC3)=N2)=CC=C1

> <standard_relation>
=

> <predicted_activity_value>
7.527243550682788

> <actual_activity_value>
7.481486060122112

> <Publication ID>
nan

> <standard_units>
nM

> hash
17599172884970068713

$$$$
1
XXILIB    08252103513D 0   0.00000     0.00000

 27 29  0     1  0            999 V2000
   -4.6013    0.5742   -0.8922 O   0  0  0  0  0  2           0  0  0
   -2.6441   -0.0207    2.4148 O   0  0  0  0  0  2           0  0  0
   -0.6185    0.0000    1.1993 N   0  0  0  0  0  3           0  0  0
   -0.6724   -0.0018   -1.1766 N   0  0  0  0  0  3           0  0  0
   -4.1072   -0.0143    0.0774 N   0  0  0  0  0  3           0  0  0
    1.4049    0.0000   -0.0000 N   0  0  0  0  0  3           0  0  0
   -2.6923   -0.0265   -2.3860 N   0  0  0  0  0  3           0  0  0
    3.3669   -3.7166    4.8158 N   0  0  0  0  0  3           0  0  0
   -1.9706   -0.0005    1.2034 C   0  0  0  0  0  4           0  0  0
    0.0000    0.0000    0.0000 C   0  0  0  0  0  4           0  0  0
   -2.0290    0.0165   -1.1598 C   0  0  0  0  0  4           0  0  0
   -2.7366    0.0123    0.0420 C   0  0  0  0  0  4           0  0  0
    2.3161   -0.0000    1.0589 C   0  0  0  0  0  4           0  0  0
    2.9712   -0.5784    3.3470 C   0  0  0  0  0  4           0  0  0
    2.0326   -0.5919    2.3011 C   0  0  0  0  0  4           0  0  0
    3.5657    0.6141    0.8859 C   0  0  0  0  0  4           0  0  0
    4.2059    0.0497    3.1462 C   0  0  0  0  0  4           0  0  0
    4.5019    0.6409    1.9201 C   0  0  0  0  0  4           0  0  0
   -1.7905   -0.0393    3.5586 C   0  0  0  0  0  4           0  0  0
    3.0493   -2.6023    4.7489 C   0  0  0  0  0  4           0  0  0
    2.6423   -1.1988    4.6739 C   0  0  0  0  0  4           0  0  0
   -2.6360   -0.0605    4.8306 C   0  0  1  0  0  4           0  0  0
   -3.5434    1.1782    4.9220 C   0  0  0  0  0  4           0  0  0
   -3.4678   -1.3484    4.9006 C   0  0  0  0  0  4           0  0  0
   -4.4303    1.1380    6.1649 C   0  0  0  0  0  4           0  0  0
   -4.3509   -1.3839    6.1453 C   0  0  0  0  0  4           0  0  0
   -5.2430   -0.1506    6.2382 C   0  0  0  0  0  4           0  0  0
  1  5  2  0     0  0
  2  9  1  0     0  0
  2 19  1  0     0  0
  3  9  2  0     0  0
  3 10  1  0     0  0
  4 10  2  0     0  0
  4 11  1  0     0  0
  5 12  1  0     0  0
  6 10  1  0     0  0
  6 13  1  0     0  0
  7 11  1  0     0  0
  8 20  3  0     0  0
  9 12  1  0     0  0
 11 12  2  0     0  0
 13 15  1  0     0  0
 13 16  2  0     0  0
 14 15  2  0     0  0
 14 17  1  0     0  0
 14 21  1  0     0  0
 16 18  1  0     0  0
 17 18  2  0     0  0
 19 22  1  0     0  0
 20 21  1  0     0  0
 22 23  1  0     0  0
 22 24  1  0     0  0
 23 25  1  0     0  0
 24 26  1  0     0  0
 25 27  1  0     0  0
 26 27  1  0     0  0
M  END
> <Compound >
2

> <standard_type>
pIC50

> <# Confs.>
25

> <canonical_smiles>
N#CCC1=CC(NC2=NC(N)=C(N=O)C(OCC3CCCCC3)=N2)=CC=C1

> <standard_relation>
=

> <predicted_activity_value>
7.527243550682788

> <actual_activity_value>
7.481486060122112

> <Publication ID>
nan

> <standard_units>
nM

> hash
17599172884970068713

$$$$
1
XXILIB    08252103513D 0   0.00000     0.00000

 27 29  0     1  0            999 V2000
   -4.6013    0.5742   -0.8922 O   0  0  0  0  0  2           0  0  0
   -2.6441   -0.0207    2.4148 O   0  0  0  0  0  2           0  0  0
   -0.6185   -0.0000    1.1993 N   0  0  0  0  0  3           0  0  0
   -0.6724   -0.0018   -1.1766 N   0  0  0  0  0  3           0  0  0
   -4.1072   -0.0143    0.0774 N   0  0  0  0  0  3           0  0  0
    1.4049    0.0000   -0.0000 N   0  0  0  0  0  3           0  0  0
   -2.6923   -0.0265   -2.3860 N   0  0  0  0  0  3           0  0  0
    1.5541   -0.4258    6.3758 N   0  0  0  0  0  3           0  0  0
   -1.9706   -0.0005    1.2034 C   0  0  0  0  0  4           0  0  0
    0.0000    0.0000    0.0000 C   0  0  0  0  0  4           0  0  0
   -2.0290    0.0165   -1.1598 C   0  0  0  0  0  4           0  0  0
   -2.7366    0.0123    0.0420 C   0  0  0  0  0  4           0  0  0
    2.3161    0.0000    1.0589 C   0  0  0  0  0  4           0  0  0
    2.9689    0.5733    3.3489 C   0  0  0  0  0  4           0  0  0
    2.0326    0.5919    2.3011 C   0  0  0  0  0  4           0  0  0
    3.5671   -0.6109    0.8847 C   0  0  0  0  0  4           0  0  0
    4.2116   -0.0365    3.1412 C   0  0  0  0  0  4           0  0  0
    4.5076   -0.6279    1.9152 C   0  0  0  0  0  4           0  0  0
   -1.9427   -0.6888    3.4631 C   0  0  0  0  0  4           0  0  0
    2.0426    0.3020    5.6152 C   0  0  0  0  0  4           0  0  0
    2.6553    1.2285    4.6627 C   0  0  0  0  0  4           0  0  0
   -2.9429   -1.3073    4.4380 C   0  0  1  0  0  4           0  0  0
   -3.8534   -2.3286    3.7351 C   0  0  0  0  0  4           0  0  0
   -2.2094   -1.9573    5.6191 C   0  0  0  0  0  4           0  0  0
   -4.8212   -2.9903    4.7142 C   0  0  0  0  0  4           0  0  0
   -3.1814   -2.6154    6.5950 C   0  0  0  0  0  4           0  0  0
   -4.0888   -3.6208    5.8942 C   0  0  0  0  0  4           0  0  0
  1  5  2  0     0  0
  2  9  1  0     0  0
  2 19  1  0     0  0
  3  9  2  0     0  0
  3 10  1  0     0  0
  4 10  2  0     0  0
  4 11  1  0     0  0
  5 12  1  0     0  0
  6 10  1  0     0  0
  6 13  1  0     0  0
  7 11  1  0     0  0
  8 20  3  0     0  0
  9 12  1  0     0  0
 11 12  2  0     0  0
 13 15  1  0     0  0
 13 16  2  0     0  0
 14 15  2  0     0  0
 14 17  1  0     0  0
 14 21  1  0     0  0
 16 18  1  0     0  0
 17 18  2  0     0  0
 19 22  1  0     0  0
 20 21  1  0     0  0
 22 23  1  0     0  0
 22 24  1  0     0  0
 23 25  1  0     0  0
 24 26  1  0     0  0
 25 27  1  0     0  0
 26 27  1  0     0  0
M  END
> <Compound >
2

> <standard_type>
pIC50

> <# Confs.>
25

> <canonical_smiles>
N#CCC1=CC(NC2=NC(N)=C(N=O)C(OCC3CCCCC3)=N2)=CC=C1

> <standard_relation>
=

> <predicted_activity_value>
7.527243550682788

> <actual_activity_value>
7.481486060122112

> <Publication ID>
nan

> <standard_units>
nM

> hash
17599172884970068713

$$$$
4
XXILIB    08252103513D 0   0.00000     0.00000

 30 32  0     1  0            999 V2000
   -0.9741   -0.0032    8.0625 S   0  0  1  0  0  6           0  0  0
    0.4597    0.2105    8.0862 O   0  0  0  0  0  2           0  0  0
   -1.5635   -1.1708    8.6887 O   0  0  0  0  0  2           0  0  0
    1.0735    0.8743   -4.2700 O   0  0  0  0  0  2           0  0  0
    1.3870   -0.0000    0.0000 O   0  0  0  0  0  2           0  0  0
   -0.6530   -0.0000    1.1842 N   0  0  0  0  0  3           0  0  0
   -2.7112   -0.1212    0.0048 N   0  0  0  0  0  3           0  0  0
   -1.7609    1.3989    8.6302 N   0  0  0  0  0  3           0  0  0
    0.3701    1.0611   -3.0778 N   0  0  0  0  0  3           0  0  0
   -2.7258   -0.0779    2.3596 N   0  0  0  0  0  3           0  0  0
   -2.8135   -0.1777   -2.3397 N   0  0  0  0  0  3           0  0  0
   -1.4850    0.0080    6.3738 C   0  0  0  0  0  4           0  0  0
    0.0000    0.0000    0.0000 C   0  0  0  0  0  4           0  0  0
   -2.0018   -0.0641    1.1555 C   0  0  0  0  0  4           0  0  0
   -2.0497   -0.1032   -1.1794 C   0  0  0  0  0  4           0  0  0
   -2.2903   -0.0349    3.6860 C   0  0  0  0  0  4           0  0  0
   -0.6576   -0.0563   -1.2222 C   0  0  0  0  0  4           0  0  0
   -2.6573   -0.6535    6.0173 C   0  0  0  0  0  4           0  0  0
   -0.7021    0.6383    5.4108 C   0  0  0  0  0  4           0  0  0
   -3.0557   -0.6682    4.6792 C   0  0  0  0  0  4           0  0  0
   -1.1079    0.6160    4.0730 C   0  0  0  0  0  4           0  0  0
    1.9722   -0.0000    1.3020 C   0  0  0  0  0  4           0  0  0
    0.0908   -0.0741   -2.5071 C   0  0  0  0  0  4           0  0  0
    3.4918    0.0000    1.1543 C   0  0  1  0  0  4           0  0  0
    3.9829    1.2386    0.3880 C   0  0  0  0  0  4           0  0  0
    4.1902   -0.0888    2.5208 C   0  0  0  0  0  4           0  0  0
    5.5028    1.2373    0.2366 C   0  0  0  0  0  4           0  0  0
    5.7106   -0.0926    2.3736 C   0  0  0  0  0  4           0  0  0
    6.2035    1.1178    1.5865 C   0  0  0  0  0  4           0  0  0
    0.5018   -1.4090   -3.1035 C   0  0  0  0  0  4           0  0  0
  1  2  2  0     0  0
  1  3  2  0     0  0
  1  8  1  0     0  0
  1 12  1  0     0  0
  4  9  1  0     0  0
  5 13  1  0     0  0
  5 22  1  0     0  0
  6 13  2  0     0  0
  6 14  1  0     0  0
  7 14  2  0     0  0
  7 15  1  0     0  0
  9 23  2  0     0  0
 10 14  1  0     0  0
 10 16  1  0     0  0
 11 15  1  0     0  0
 12 18  2  0     0  0
 12 19  1  0     0  0
 13 17  1  0     0  0
 15 17  2  0     0  0
 16 20  2  0     0  0
 16 21  1  0     0  0
 17 23  1  0     0  0
 18 20  1  0     0  0
 19 21  2  0     0  0
 22 24  1  0     0  0
 23 30  1  0     0  0
 24 25  1  0     0  0
 24 26  1  0     0  0
 25 27  1  0     0  0
 26 28  1  0     0  0
 27 29  1  0     0  0
 28 29  1  0     0  0
M  END
> <Compound >
5

> <standard_type>
pIC50

> <# Confs.>
25

> <canonical_smiles>
NC1=C(/C(C)=N/O)C(OCC2CCCCC2)=NC(NC3=CC=C(S(=O)(N)=O)C=C3)=N1

> <standard_relation>
=

> <predicted_activity_value>
6.724919101543142

> <actual_activity_value>
6.931814138253839

> <Publication ID>
nan

> <standard_units>
nM

> hash
9398626533695141173

$$$$
4
XXILIB    08252103513D 0   0.00000     0.00000

 30 32  0     1  0            999 V2000
   -0.9741   -0.0032    8.0625 S   0  0  1  0  0  6           0  0  0
    0.4597    0.2105    8.0862 O   0  0  0  0  0  2           0  0  0
   -1.5635   -1.1708    8.6887 O   0  0  0  0  0  2           0  0  0
    1.0735    0.8743   -4.2700 O   0  0  0  0  0  2           0  0  0
    1.3870   -0.0000    0.0000 O   0  0  0  0  0  2           0  0  0
   -0.6530   -0.0000    1.1842 N   0  0  0  0  0  3           0  0  0
   -2.7112   -0.1212    0.0048 N   0  0  0  0  0  3           0  0  0
   -1.7609    1.3989    8.6302 N   0  0  0  0  0  3           0  0  0
    0.3701    1.0611   -3.0778 N   0  0  0  0  0  3           0  0  0
   -2.7258   -0.0779    2.3596 N   0  0  0  0  0  3           0  0  0
   -2.8135   -0.1777   -2.3397 N   0  0  0  0  0  3           0  0  0
   -1.4850    0.0080    6.3738 C   0  0  0  0  0  4           0  0  0
    0.0000    0.0000    0.0000 C   0  0  0  0  0  4           0  0  0
   -2.0018   -0.0641    1.1555 C   0  0  0  0  0  4           0  0  0
   -2.0497   -0.1032   -1.1794 C   0  0  0  0  0  4           0  0  0
   -2.2903   -0.0349    3.6860 C   0  0  0  0  0  4           0  0  0
   -0.6576   -0.0563   -1.2222 C   0  0  0  0  0  4           0  0  0
   -2.6573   -0.6535    6.0173 C   0  0  0  0  0  4           0  0  0
   -0.7021    0.6383    5.4108 C   0  0  0  0  0  4           0  0  0
   -3.0557   -0.6682    4.6792 C   0  0  0  0  0  4           0  0  0
   -1.1079    0.6160    4.0730 C   0  0  0  0  0  4           0  0  0
    1.9722   -0.0000    1.3020 C   0  0  0  0  0  4           0  0  0
    0.0908   -0.0741   -2.5071 C   0  0  0  0  0  4           0  0  0
    3.4918    0.0000    1.1543 C   0  0  1  0  0  4           0  0  0
    3.9829   -1.2386    0.3880 C   0  0  0  0  0  4           0  0  0
    3.9905    1.2809    0.4659 C   0  0  0  0  0  4           0  0  0
    5.5035   -1.2411    0.2432 C   0  0  0  0  0  4           0  0  0
    5.5111    1.2832    0.3211 C   0  0  0  0  0  4           0  0  0
    6.0094    0.0408   -0.4110 C   0  0  0  0  0  4           0  0  0
    0.5018   -1.4090   -3.1035 C   0  0  0  0  0  4           0  0  0
  1  2  2  0     0  0
  1  3  2  0     0  0
  1  8  1  0     0  0
  1 12  1  0     0  0
  4  9  1  0     0  0
  5 13  1  0     0  0
  5 22  1  0     0  0
  6 13  2  0     0  0
  6 14  1  0     0  0
  7 14  2  0     0  0
  7 15  1  0     0  0
  9 23  2  0     0  0
 10 14  1  0     0  0
 10 16  1  0     0  0
 11 15  1  0     0  0
 12 18  2  0     0  0
 12 19  1  0     0  0
 13 17  1  0     0  0
 15 17  2  0     0  0
 16 20  2  0     0  0
 16 21  1  0     0  0
 17 23  1  0     0  0
 18 20  1  0     0  0
 19 21  2  0     0  0
 22 24  1  0     0  0
 23 30  1  0     0  0
 24 25  1  0     0  0
 24 26  1  0     0  0
 25 27  1  0     0  0
 26 28  1  0     0  0
 27 29  1  0     0  0
 28 29  1  0     0  0
M  END
> <Compound >
5

> <standard_type>
pIC50

> <# Confs.>
25

> <canonical_smiles>
NC1=C(/C(C)=N/O)C(OCC2CCCCC2)=NC(NC3=CC=C(S(=O)(N)=O)C=C3)=N1

> <standard_relation>
=

> <predicted_activity_value>
6.724919101543142

> <actual_activity_value>
6.931814138253839

> <Publication ID>
nan

> <standard_units>
nM

> hash
9398626533695141173

$$$$
4
XXILIB    08252103513D 0   0.00000     0.00000

 30 32  0     1  0            999 V2000
   -0.9741   -0.0032    8.0625 S   0  0  1  0  0  6           0  0  0
    0.4597    0.2105    8.0862 O   0  0  0  0  0  2           0  0  0
   -1.5635   -1.1708    8.6887 O   0  0  0  0  0  2           0  0  0
    1.0735    0.8743   -4.2700 O   0  0  0  0  0  2           0  0  0
    1.3870   -0.0000    0.0000 O   0  0  0  0  0  2           0  0  0
   -0.6530   -0.0000    1.1842 N   0  0  0  0  0  3           0  0  0
   -2.7112   -0.1212    0.0048 N   0  0  0  0  0  3           0  0  0
   -1.7609    1.3989    8.6302 N   0  0  0  0  0  3           0  0  0
    0.3701    1.0611   -3.0778 N   0  0  0  0  0  3           0  0  0
   -2.7258   -0.0779    2.3596 N   0  0  0  0  0  3           0  0  0
   -2.8135   -0.1777   -2.3397 N   0  0  0  0  0  3           0  0  0
   -1.4850    0.0080    6.3738 C   0  0  0  0  0  4           0  0  0
    0.0000    0.0000    0.0000 C   0  0  0  0  0  4           0  0  0
   -2.0018   -0.0641    1.1555 C   0  0  0  0  0  4           0  0  0
   -2.0497   -0.1032   -1.1794 C   0  0  0  0  0  4           0  0  0
   -2.2903   -0.0349    3.6860 C   0  0  0  0  0  4           0  0  0
   -0.6576   -0.0563   -1.2222 C   0  0  0  0  0  4           0  0  0
   -2.6573   -0.6535    6.0173 C   0  0  0  0  0  4           0  0  0
   -0.7021    0.6383    5.4108 C   0  0  0  0  0  4           0  0  0
   -3.0557   -0.6682    4.6792 C   0  0  0  0  0  4           0  0  0
   -1.1079    0.6160    4.0730 C   0  0  0  0  0  4           0  0  0
    1.9722   -0.0000    1.3020 C   0  0  0  0  0  4           0  0  0
    0.0908   -0.0741   -2.5071 C   0  0  0  0  0  4           0  0  0
    3.4918    0.0000    1.1543 C   0  0  1  0  0  4           0  0  0
    4.1905   -0.0000    2.5234 C   0  0  0  0  0  4           0  0  0
    3.9756   -1.1920    0.3127 C   0  0  0  0  0  4           0  0  0
    5.7108    0.0039    2.3762 C   0  0  0  0  0  4           0  0  0
    5.4956   -1.1906    0.1614 C   0  0  0  0  0  4           0  0  0
    6.1967   -1.1587    1.5161 C   0  0  0  0  0  4           0  0  0
    0.5018   -1.4090   -3.1035 C   0  0  0  0  0  4           0  0  0
  1  2  2  0     0  0
  1  3  2  0     0  0
  1  8  1  0     0  0
  1 12  1  0     0  0
  4  9  1  0     0  0
  5 13  1  0     0  0
  5 22  1  0     0  0
  6 13  2  0     0  0
  6 14  1  0     0  0
  7 14  2  0     0  0
  7 15  1  0     0  0
  9 23  2  0     0  0
 10 14  1  0     0  0
 10 16  1  0     0  0
 11 15  1  0     0  0
 12 18  2  0     0  0
 12 19  1  0     0  0
 13 17  1  0     0  0
 15 17  2  0     0  0
 16 20  2  0     0  0
 16 21  1  0     0  0
 17 23  1  0     0  0
 18 20  1  0     0  0
 19 21  2  0     0  0
 22 24  1  0     0  0
 23 30  1  0     0  0
 24 25  1  0     0  0
 24 26  1  0     0  0
 25 27  1  0     0  0
 26 28  1  0     0  0
 27 29  1  0     0  0
 28 29  1  0     0  0
M  END
> <Compound >
5

> <standard_type>
pIC50

> <# Confs.>
25

> <canonical_smiles>
NC1=C(/C(C)=N/O)C(OCC2CCCCC2)=NC(NC3=CC=C(S(=O)(N)=O)C=C3)=N1

> <standard_relation>
=

> <predicted_activity_value>
6.724919101543142

> <actual_activity_value>
6.931814138253839

> <Publication ID>
nan

> <standard_units>
nM

> hash
9398626533695141173

$$$$
4
XXILIB    08252103513D 0   0.00000     0.00000

 30 32  0     1  0            999 V2000
   -1.0106    0.1505    8.0696 S   0  0  1  0  0  6           0  0  0
   -0.0444   -0.9081    8.2879 O   0  0  0  0  0  2           0  0  0
   -2.2238    0.2263    8.8602 O   0  0  0  0  0  2           0  0  0
    1.0735    0.8743   -4.2700 O   0  0  0  0  0  2           0  0  0
    1.3870   -0.0000    0.0000 O   0  0  0  0  0  2           0  0  0
   -0.6530   -0.0000    1.1842 N   0  0  0  0  0  3           0  0  0
   -2.7112   -0.1212    0.0048 N   0  0  0  0  0  3           0  0  0
   -0.2135    1.6572    8.1138 N   0  0  0  0  0  3           0  0  0
    0.3701    1.0611   -3.0778 N   0  0  0  0  0  3           0  0  0
   -2.7258   -0.0779    2.3596 N   0  0  0  0  0  3           0  0  0
   -2.8135   -0.1777   -2.3397 N   0  0  0  0  0  3           0  0  0
   -1.4866    0.0932    6.3716 C   0  0  0  0  0  4           0  0  0
    0.0000    0.0000    0.0000 C   0  0  0  0  0  4           0  0  0
   -2.0018   -0.0641    1.1555 C   0  0  0  0  0  4           0  0  0
   -2.0497   -0.1032   -1.1794 C   0  0  0  0  0  4           0  0  0
   -2.2903   -0.0349    3.6860 C   0  0  0  0  0  4           0  0  0
   -0.6576   -0.0563   -1.2222 C   0  0  0  0  0  4           0  0  0
   -2.7203    0.6192    5.9968 C   0  0  0  0  0  4           0  0  0
   -0.6527   -0.5056    5.4317 C   0  0  0  0  0  4           0  0  0
   -3.1135    0.5567    4.6585 C   0  0  0  0  0  4           0  0  0
   -1.0562   -0.5657    4.0943 C   0  0  0  0  0  4           0  0  0
    1.9722   -0.0000    1.3020 C   0  0  0  0  0  4           0  0  0
    0.0908   -0.0741   -2.5071 C   0  0  0  0  0  4           0  0  0
    3.4918    0.0000    1.1543 C   0  0  1  0  0  4           0  0  0
    3.9829    1.2386    0.3880 C   0  0  0  0  0  4           0  0  0
    4.1902   -0.0888    2.5208 C   0  0  0  0  0  4           0  0  0
    5.5028    1.2373    0.2366 C   0  0  0  0  0  4           0  0  0
    5.7106   -0.0926    2.3736 C   0  0  0  0  0  4           0  0  0
    6.2035    1.1178    1.5865 C   0  0  0  0  0  4           0  0  0
    0.5018   -1.4090   -3.1035 C   0  0  0  0  0  4           0  0  0
  1  2  2  0     0  0
  1  3  2  0     0  0
  1  8  1  0     0  0
  1 12  1  0     0  0
  4  9  1  0     0  0
  5 13  1  0     0  0
  5 22  1  0     0  0
  6 13  2  0     0  0
  6 14  1  0     0  0
  7 14  2  0     0  0
  7 15  1  0     0  0
  9 23  2  0     0  0
 10 14  1  0     0  0
 10 16  1  0     0  0
 11 15  1  0     0  0
 12 18  2  0     0  0
 12 19  1  0     0  0
 13 17  1  0     0  0
 15 17  2  0     0  0
 16 20  2  0     0  0
 16 21  1  0     0  0
 17 23  1  0     0  0
 18 20  1  0     0  0
 19 21  2  0     0  0
 22 24  1  0     0  0
 23 30  1  0     0  0
 24 25  1  0     0  0
 24 26  1  0     0  0
 25 27  1  0     0  0
 26 28  1  0     0  0
 27 29  1  0     0  0
 28 29  1  0     0  0
M  END
> <Compound >
5

> <standard_type>
pIC50

> <# Confs.>
25

> <canonical_smiles>
NC1=C(/C(C)=N/O)C(OCC2CCCCC2)=NC(NC3=CC=C(S(=O)(N)=O)C=C3)=N1

> <standard_relation>
=

> <predicted_activity_value>
6.724919101543142

> <actual_activity_value>
6.931814138253839

> <Publication ID>
nan

> <standard_units>
nM

> hash
9398626533695141173

$$$$
4
XXILIB    08252103513D 0   0.00000     0.00000

 30 32  0     1  0            999 V2000
   -0.9741   -0.0032    8.0625 S   0  0  1  0  0  6           0  0  0
   -2.1551   -0.2225    8.8744 O   0  0  0  0  0  2           0  0  0
   -0.1321    1.1588    8.2711 O   0  0  0  0  0  2           0  0  0
    1.0735    0.8743   -4.2700 O   0  0  0  0  0  2           0  0  0
    1.3870   -0.0000    0.0000 O   0  0  0  0  0  2           0  0  0
   -0.6530   -0.0000    1.1842 N   0  0  0  0  0  3           0  0  0
   -2.7112   -0.1212    0.0048 N   0  0  0  0  0  3           0  0  0
   -0.0097   -1.4092    8.0816 N   0  0  0  0  0  3           0  0  0
    0.3701    1.0611   -3.0778 N   0  0  0  0  0  3           0  0  0
   -2.7258   -0.0779    2.3596 N   0  0  0  0  0  3           0  0  0
   -2.8135   -0.1777   -2.3397 N   0  0  0  0  0  3           0  0  0
   -1.4850    0.0080    6.3738 C   0  0  0  0  0  4           0  0  0
    0.0000    0.0000    0.0000 C   0  0  0  0  0  4           0  0  0
   -2.0018   -0.0641    1.1555 C   0  0  0  0  0  4           0  0  0
   -2.0497   -0.1032   -1.1794 C   0  0  0  0  0  4           0  0  0
   -2.2903   -0.0349    3.6860 C   0  0  0  0  0  4           0  0  0
   -0.6576   -0.0563   -1.2222 C   0  0  0  0  0  4           0  0  0
   -2.6573   -0.6535    6.0173 C   0  0  0  0  0  4           0  0  0
   -0.7021    0.6383    5.4108 C   0  0  0  0  0  4           0  0  0
   -3.0557   -0.6682    4.6792 C   0  0  0  0  0  4           0  0  0
   -1.1079    0.6160    4.0730 C   0  0  0  0  0  4           0  0  0
    1.9722   -0.0000    1.3020 C   0  0  0  0  0  4           0  0  0
    0.0908   -0.0741   -2.5071 C   0  0  0  0  0  4           0  0  0
    3.4918    0.0000    1.1543 C   0  0  1  0  0  4           0  0  0
    3.9829    1.2386    0.3880 C   0  0  0  0  0  4           0  0  0
    4.1902   -0.0888    2.5208 C   0  0  0  0  0  4           0  0  0
    5.5028    1.2373    0.2366 C   0  0  0  0  0  4           0  0  0
    5.7106   -0.0926    2.3736 C   0  0  0  0  0  4           0  0  0
    6.2035    1.1178    1.5865 C   0  0  0  0  0  4           0  0  0
    0.5018   -1.4090   -3.1035 C   0  0  0  0  0  4           0  0  0
  1  2  2  0     0  0
  1  3  2  0     0  0
  1  8  1  0     0  0
  1 12  1  0     0  0
  4  9  1  0     0  0
  5 13  1  0     0  0
  5 22  1  0     0  0
  6 13  2  0     0  0
  6 14  1  0     0  0
  7 14  2  0     0  0
  7 15  1  0     0  0
  9 23  2  0     0  0
 10 14  1  0     0  0
 10 16  1  0     0  0
 11 15  1  0     0  0
 12 18  2  0     0  0
 12 19  1  0     0  0
 13 17  1  0     0  0
 15 17  2  0     0  0
 16 20  2  0     0  0
 16 21  1  0     0  0
 17 23  1  0     0  0
 18 20  1  0     0  0
 19 21  2  0     0  0
 22 24  1  0     0  0
 23 30  1  0     0  0
 24 25  1  0     0  0
 24 26  1  0     0  0
 25 27  1  0     0  0
 26 28  1  0     0  0
 27 29  1  0     0  0
 28 29  1  0     0  0
M  END
> <Compound >
5

> <standard_type>
pIC50

> <# Confs.>
25

> <canonical_smiles>
NC1=C(/C(C)=N/O)C(OCC2CCCCC2)=NC(NC3=CC=C(S(=O)(N)=O)C=C3)=N1

> <standard_relation>
=

> <predicted_activity_value>
6.724919101543142

> <actual_activity_value>
6.931814138253839

> <Publication ID>
nan

> <standard_units>
nM

> hash
9398626533695141173

$$$$
4
XXILIB    08252103513D 0   0.00000     0.00000

 30 32  0     1  0            999 V2000
   -1.0106    0.1505    8.0696 S   0  0  1  0  0  6           0  0  0
   -0.0444   -0.9081    8.2879 O   0  0  0  0  0  2           0  0  0
   -2.2238    0.2263    8.8602 O   0  0  0  0  0  2           0  0  0
    1.0735    0.8743   -4.2700 O   0  0  0  0  0  2           0  0  0
    1.3870   -0.0000    0.0000 O   0  0  0  0  0  2           0  0  0
   -0.6530   -0.0000    1.1842 N   0  0  0  0  0  3           0  0  0
   -2.7112   -0.1212    0.0048 N   0  0  0  0  0  3           0  0  0
   -0.2135    1.6572    8.1138 N   0  0  0  0  0  3           0  0  0
    0.3701    1.0611   -3.0778 N   0  0  0  0  0  3           0  0  0
   -2.7258   -0.0779    2.3596 N   0  0  0  0  0  3           0  0  0
   -2.8135   -0.1777   -2.3397 N   0  0  0  0  0  3           0  0  0
   -1.4866    0.0932    6.3716 C   0  0  0  0  0  4           0  0  0
    0.0000    0.0000    0.0000 C   0  0  0  0  0  4           0  0  0
   -2.0018   -0.0641    1.1555 C   0  0  0  0  0  4           0  0  0
   -2.0497   -0.1032   -1.1794 C   0  0  0  0  0  4           0  0  0
   -2.2903   -0.0349    3.6860 C   0  0  0  0  0  4           0  0  0
   -0.6576   -0.0563   -1.2222 C   0  0  0  0  0  4           0  0  0
   -2.7203    0.6192    5.9968 C   0  0  0  0  0  4           0  0  0
   -0.6527   -0.5056    5.4317 C   0  0  0  0  0  4           0  0  0
   -3.1135    0.5567    4.6585 C   0  0  0  0  0  4           0  0  0
   -1.0562   -0.5657    4.0943 C   0  0  0  0  0  4           0  0  0
    1.9722   -0.0000    1.3020 C   0  0  0  0  0  4           0  0  0
    0.0908   -0.0741   -2.5071 C   0  0  0  0  0  4           0  0  0
    3.4918    0.0000    1.1543 C   0  0  1  0  0  4           0  0  0
    4.1905   -0.0000    2.5234 C   0  0  0  0  0  4           0  0  0
    3.9756   -1.1920    0.3127 C   0  0  0  0  0  4           0  0  0
    5.7108    0.0039    2.3762 C   0  0  0  0  0  4           0  0  0
    5.4956   -1.1906    0.1614 C   0  0  0  0  0  4           0  0  0
    6.1967   -1.1587    1.5161 C   0  0  0  0  0  4           0  0  0
    0.5018   -1.4090   -3.1035 C   0  0  0  0  0  4           0  0  0
  1  2  2  0     0  0
  1  3  2  0     0  0
  1  8  1  0     0  0
  1 12  1  0     0  0
  4  9  1  0     0  0
  5 13  1  0     0  0
  5 22  1  0     0  0
  6 13  2  0     0  0
  6 14  1  0     0  0
  7 14  2  0     0  0
  7 15  1  0     0  0
  9 23  2  0     0  0
 10 14  1  0     0  0
 10 16  1  0     0  0
 11 15  1  0     0  0
 12 18  2  0     0  0
 12 19  1  0     0  0
 13 17  1  0     0  0
 15 17  2  0     0  0
 16 20  2  0     0  0
 16 21  1  0     0  0
 17 23  1  0     0  0
 18 20  1  0     0  0
 19 21  2  0     0  0
 22 24  1  0     0  0
 23 30  1  0     0  0
 24 25  1  0     0  0
 24 26  1  0     0  0
 25 27  1  0     0  0
 26 28  1  0     0  0
 27 29  1  0     0  0
 28 29  1  0     0  0
M  END
> <Compound >
5

> <standard_type>
pIC50

> <# Confs.>
25

> <canonical_smiles>
NC1=C(/C(C)=N/O)C(OCC2CCCCC2)=NC(NC3=CC=C(S(=O)(N)=O)C=C3)=N1

> <standard_relation>
=

> <predicted_activity_value>
6.724919101543142

> <actual_activity_value>
6.931814138253839

> <Publication ID>
nan

> <standard_units>
nM

> hash
9398626533695141173

$$$$
4
XXILIB    08252103513D 0   0.00000     0.00000

 30 32  0     1  0            999 V2000
   -1.0106    0.1505    8.0696 S   0  0  1  0  0  6           0  0  0
   -0.0444   -0.9081    8.2879 O   0  0  0  0  0  2           0  0  0
   -2.2238    0.2263    8.8602 O   0  0  0  0  0  2           0  0  0
    1.0735    0.8743   -4.2700 O   0  0  0  0  0  2           0  0  0
    1.3870   -0.0000    0.0000 O   0  0  0  0  0  2           0  0  0
   -0.6530   -0.0000    1.1842 N   0  0  0  0  0  3           0  0  0
   -2.7112   -0.1212    0.0048 N   0  0  0  0  0  3           0  0  0
   -0.2135    1.6572    8.1138 N   0  0  0  0  0  3           0  0  0
    0.3701    1.0611   -3.0778 N   0  0  0  0  0  3           0  0  0
   -2.7258   -0.0779    2.3596 N   0  0  0  0  0  3           0  0  0
   -2.8135   -0.1777   -2.3397 N   0  0  0  0  0  3           0  0  0
   -1.4866    0.0932    6.3716 C   0  0  0  0  0  4           0  0  0
    0.0000    0.0000    0.0000 C   0  0  0  0  0  4           0  0  0
   -2.0018   -0.0641    1.1555 C   0  0  0  0  0  4           0  0  0
   -2.0497   -0.1032   -1.1794 C   0  0  0  0  0  4           0  0  0
   -2.2903   -0.0349    3.6860 C   0  0  0  0  0  4           0  0  0
   -0.6576   -0.0563   -1.2222 C   0  0  0  0  0  4           0  0  0
   -2.7203    0.6192    5.9968 C   0  0  0  0  0  4           0  0  0
   -0.6527   -0.5056    5.4317 C   0  0  0  0  0  4           0  0  0
   -3.1135    0.5567    4.6585 C   0  0  0  0  0  4           0  0  0
   -1.0562   -0.5657    4.0943 C   0  0  0  0  0  4           0  0  0
    1.9722   -0.0000    1.3020 C   0  0  0  0  0  4           0  0  0
    0.0908   -0.0741   -2.5071 C   0  0  0  0  0  4           0  0  0
    3.4918    0.0000    1.1543 C   0  0  1  0  0  4           0  0  0
    3.9829   -1.2386    0.3880 C   0  0  0  0  0  4           0  0  0
    3.9905    1.2809    0.4659 C   0  0  0  0  0  4           0  0  0
    5.5035   -1.2411    0.2432 C   0  0  0  0  0  4           0  0  0
    5.5111    1.2832    0.3211 C   0  0  0  0  0  4           0  0  0
    6.0094    0.0408   -0.4110 C   0  0  0  0  0  4           0  0  0
    0.5018   -1.4090   -3.1035 C   0  0  0  0  0  4           0  0  0
  1  2  2  0     0  0
  1  3  2  0     0  0
  1  8  1  0     0  0
  1 12  1  0     0  0
  4  9  1  0     0  0
  5 13  1  0     0  0
  5 22  1  0     0  0
  6 13  2  0     0  0
  6 14  1  0     0  0
  7 14  2  0     0  0
  7 15  1  0     0  0
  9 23  2  0     0  0
 10 14  1  0     0  0
 10 16  1  0     0  0
 11 15  1  0     0  0
 12 18  2  0     0  0
 12 19  1  0     0  0
 13 17  1  0     0  0
 15 17  2  0     0  0
 16 20  2  0     0  0
 16 21  1  0     0  0
 17 23  1  0     0  0
 18 20  1  0     0  0
 19 21  2  0     0  0
 22 24  1  0     0  0
 23 30  1  0     0  0
 24 25  1  0     0  0
 24 26  1  0     0  0
 25 27  1  0     0  0
 26 28  1  0     0  0
 27 29  1  0     0  0
 28 29  1  0     0  0
M  END
> <Compound >
5

> <standard_type>
pIC50

> <# Confs.>
25

> <canonical_smiles>
NC1=C(/C(C)=N/O)C(OCC2CCCCC2)=NC(NC3=CC=C(S(=O)(N)=O)C=C3)=N1

> <standard_relation>
=

> <predicted_activity_value>
6.724919101543142

> <actual_activity_value>
6.931814138253839

> <Publication ID>
nan

> <standard_units>
nM

> hash
9398626533695141173

$$$$
4
XXILIB    08252103513D 0   0.00000     0.00000

 30 32  0     1  0            999 V2000
   -0.9741   -0.0032    8.0625 S   0  0  1  0  0  6           0  0  0
   -2.1551   -0.2225    8.8744 O   0  0  0  0  0  2           0  0  0
   -0.1321    1.1588    8.2711 O   0  0  0  0  0  2           0  0  0
    1.0735    0.8743   -4.2700 O   0  0  0  0  0  2           0  0  0
    1.3870   -0.0000    0.0000 O   0  0  0  0  0  2           0  0  0
   -0.6530   -0.0000    1.1842 N   0  0  0  0  0  3           0  0  0
   -2.7112   -0.1212    0.0048 N   0  0  0  0  0  3           0  0  0
   -0.0097   -1.4092    8.0816 N   0  0  0  0  0  3           0  0  0
    0.3701    1.0611   -3.0778 N   0  0  0  0  0  3           0  0  0
   -2.7258   -0.0779    2.3596 N   0  0  0  0  0  3           0  0  0
   -2.8135   -0.1777   -2.3397 N   0  0  0  0  0  3           0  0  0
   -1.4850    0.0080    6.3738 C   0  0  0  0  0  4           0  0  0
    0.0000    0.0000    0.0000 C   0  0  0  0  0  4           0  0  0
   -2.0018   -0.0641    1.1555 C   0  0  0  0  0  4           0  0  0
   -2.0497   -0.1032   -1.1794 C   0  0  0  0  0  4           0  0  0
   -2.2903   -0.0349    3.6860 C   0  0  0  0  0  4           0  0  0
   -0.6576   -0.0563   -1.2222 C   0  0  0  0  0  4           0  0  0
   -2.6573   -0.6535    6.0173 C   0  0  0  0  0  4           0  0  0
   -0.7021    0.6383    5.4108 C   0  0  0  0  0  4           0  0  0
   -3.0557   -0.6682    4.6792 C   0  0  0  0  0  4           0  0  0
   -1.1079    0.6160    4.0730 C   0  0  0  0  0  4           0  0  0
    1.9722   -0.0000    1.3020 C   0  0  0  0  0  4           0  0  0
    0.0908   -0.0741   -2.5071 C   0  0  0  0  0  4           0  0  0
    3.4918    0.0000    1.1543 C   0  0  1  0  0  4           0  0  0
    3.9829   -1.2386    0.3880 C   0  0  0  0  0  4           0  0  0
    3.9905    1.2809    0.4659 C   0  0  0  0  0  4           0  0  0
    5.5035   -1.2411    0.2432 C   0  0  0  0  0  4           0  0  0
    5.5111    1.2832    0.3211 C   0  0  0  0  0  4           0  0  0
    6.0094    0.0408   -0.4110 C   0  0  0  0  0  4           0  0  0
    0.5018   -1.4090   -3.1035 C   0  0  0  0  0  4           0  0  0
  1  2  2  0     0  0
  1  3  2  0     0  0
  1  8  1  0     0  0
  1 12  1  0     0  0
  4  9  1  0     0  0
  5 13  1  0     0  0
  5 22  1  0     0  0
  6 13  2  0     0  0
  6 14  1  0     0  0
  7 14  2  0     0  0
  7 15  1  0     0  0
  9 23  2  0     0  0
 10 14  1  0     0  0
 10 16  1  0     0  0
 11 15  1  0     0  0
 12 18  2  0     0  0
 12 19  1  0     0  0
 13 17  1  0     0  0
 15 17  2  0     0  0
 16 20  2  0     0  0
 16 21  1  0     0  0
 17 23  1  0     0  0
 18 20  1  0     0  0
 19 21  2  0     0  0
 22 24  1  0     0  0
 23 30  1  0     0  0
 24 25  1  0     0  0
 24 26  1  0     0  0
 25 27  1  0     0  0
 26 28  1  0     0  0
 27 29  1  0     0  0
 28 29  1  0     0  0
M  END
> <Compound >
5

> <standard_type>
pIC50

> <# Confs.>
25

> <canonical_smiles>
NC1=C(/C(C)=N/O)C(OCC2CCCCC2)=NC(NC3=CC=C(S(=O)(N)=O)C=C3)=N1

> <standard_relation>
=

> <predicted_activity_value>
6.724919101543142

> <actual_activity_value>
6.931814138253839

> <Publication ID>
nan

> <standard_units>
nM

> hash
9398626533695141173

$$$$
4
XXILIB    08252103513D 0   0.00000     0.00000

 30 32  0     1  0            999 V2000
   -0.9741   -0.0032    8.0625 S   0  0  1  0  0  6           0  0  0
   -2.1551   -0.2225    8.8744 O   0  0  0  0  0  2           0  0  0
   -0.1321    1.1588    8.2711 O   0  0  0  0  0  2           0  0  0
    1.0735    0.8743   -4.2700 O   0  0  0  0  0  2           0  0  0
    1.3870   -0.0000    0.0000 O   0  0  0  0  0  2           0  0  0
   -0.6530   -0.0000    1.1842 N   0  0  0  0  0  3           0  0  0
   -2.7112   -0.1212    0.0048 N   0  0  0  0  0  3           0  0  0
   -0.0097   -1.4092    8.0816 N   0  0  0  0  0  3           0  0  0
    0.3701    1.0611   -3.0778 N   0  0  0  0  0  3           0  0  0
   -2.7258   -0.0779    2.3596 N   0  0  0  0  0  3           0  0  0
   -2.8135   -0.1777   -2.3397 N   0  0  0  0  0  3           0  0  0
   -1.4850    0.0080    6.3738 C   0  0  0  0  0  4           0  0  0
    0.0000    0.0000    0.0000 C   0  0  0  0  0  4           0  0  0
   -2.0018   -0.0641    1.1555 C   0  0  0  0  0  4           0  0  0
   -2.0497   -0.1032   -1.1794 C   0  0  0  0  0  4           0  0  0
   -2.2903   -0.0349    3.6860 C   0  0  0  0  0  4           0  0  0
   -0.6576   -0.0563   -1.2222 C   0  0  0  0  0  4           0  0  0
   -2.6573   -0.6535    6.0173 C   0  0  0  0  0  4           0  0  0
   -0.7021    0.6383    5.4108 C   0  0  0  0  0  4           0  0  0
   -3.0557   -0.6682    4.6792 C   0  0  0  0  0  4           0  0  0
   -1.1079    0.6160    4.0730 C   0  0  0  0  0  4           0  0  0
    1.9722   -0.0000    1.3020 C   0  0  0  0  0  4           0  0  0
    0.0908   -0.0741   -2.5071 C   0  0  0  0  0  4           0  0  0
    3.4918    0.0000    1.1543 C   0  0  1  0  0  4           0  0  0
    4.1905   -0.0000    2.5234 C   0  0  0  0  0  4           0  0  0
    3.9756   -1.1920    0.3127 C   0  0  0  0  0  4           0  0  0
    5.7108    0.0039    2.3762 C   0  0  0  0  0  4           0  0  0
    5.4956   -1.1906    0.1614 C   0  0  0  0  0  4           0  0  0
    6.1967   -1.1587    1.5161 C   0  0  0  0  0  4           0  0  0
    0.5018   -1.4090   -3.1035 C   0  0  0  0  0  4           0  0  0
  1  2  2  0     0  0
  1  3  2  0     0  0
  1  8  1  0     0  0
  1 12  1  0     0  0
  4  9  1  0     0  0
  5 13  1  0     0  0
  5 22  1  0     0  0
  6 13  2  0     0  0
  6 14  1  0     0  0
  7 14  2  0     0  0
  7 15  1  0     0  0
  9 23  2  0     0  0
 10 14  1  0     0  0
 10 16  1  0     0  0
 11 15  1  0     0  0
 12 18  2  0     0  0
 12 19  1  0     0  0
 13 17  1  0     0  0
 15 17  2  0     0  0
 16 20  2  0     0  0
 16 21  1  0     0  0
 17 23  1  0     0  0
 18 20  1  0     0  0
 19 21  2  0     0  0
 22 24  1  0     0  0
 23 30  1  0     0  0
 24 25  1  0     0  0
 24 26  1  0     0  0
 25 27  1  0     0  0
 26 28  1  0     0  0
 27 29  1  0     0  0
 28 29  1  0     0  0
M  END
> <Compound >
5

> <standard_type>
pIC50

> <# Confs.>
25

> <canonical_smiles>
NC1=C(/C(C)=N/O)C(OCC2CCCCC2)=NC(NC3=CC=C(S(=O)(N)=O)C=C3)=N1

> <standard_relation>
=

> <predicted_activity_value>
6.724919101543142

> <actual_activity_value>
6.931814138253839

> <Publication ID>
nan

> <standard_units>
nM

> hash
9398626533695141173

$$$$
4
XXILIB    08252103513D 0   0.00000     0.00000

 30 32  0     1  0            999 V2000
   -1.0106    0.1505    8.0696 S   0  0  1  0  0  6           0  0  0
   -1.7414    1.2374    8.6913 O   0  0  0  0  0  2           0  0  0
    0.4379    0.1030    8.1182 O   0  0  0  0  0  2           0  0  0
    1.0735    0.8743   -4.2700 O   0  0  0  0  0  2           0  0  0
    1.3870   -0.0000    0.0000 O   0  0  0  0  0  2           0  0  0
   -0.6530   -0.0000    1.1842 N   0  0  0  0  0  3           0  0  0
   -2.7112   -0.1212    0.0048 N   0  0  0  0  0  3           0  0  0
   -1.6423   -1.3363    8.6153 N   0  0  0  0  0  3           0  0  0
    0.3701    1.0611   -3.0778 N   0  0  0  0  0  3           0  0  0
   -2.7258   -0.0779    2.3596 N   0  0  0  0  0  3           0  0  0
   -2.8135   -0.1777   -2.3397 N   0  0  0  0  0  3           0  0  0
   -1.4866    0.0932    6.3716 C   0  0  0  0  0  4           0  0  0
    0.0000    0.0000    0.0000 C   0  0  0  0  0  4           0  0  0
   -2.0018   -0.0641    1.1555 C   0  0  0  0  0  4           0  0  0
   -2.0497   -0.1032   -1.1794 C   0  0  0  0  0  4           0  0  0
   -2.2903   -0.0349    3.6860 C   0  0  0  0  0  4           0  0  0
   -0.6576   -0.0563   -1.2222 C   0  0  0  0  0  4           0  0  0
   -2.7203    0.6192    5.9968 C   0  0  0  0  0  4           0  0  0
   -0.6527   -0.5056    5.4317 C   0  0  0  0  0  4           0  0  0
   -3.1135    0.5567    4.6585 C   0  0  0  0  0  4           0  0  0
   -1.0562   -0.5657    4.0943 C   0  0  0  0  0  4           0  0  0
    1.9722   -0.0000    1.3020 C   0  0  0  0  0  4           0  0  0
    0.0908   -0.0741   -2.5071 C   0  0  0  0  0  4           0  0  0
    3.4918    0.0000    1.1543 C   0  0  1  0  0  4           0  0  0
    3.9829    1.2386    0.3880 C   0  0  0  0  0  4           0  0  0
    4.1902   -0.0888    2.5208 C   0  0  0  0  0  4           0  0  0
    5.5028    1.2373    0.2366 C   0  0  0  0  0  4           0  0  0
    5.7106   -0.0926    2.3736 C   0  0  0  0  0  4           0  0  0
    6.2035    1.1178    1.5865 C   0  0  0  0  0  4           0  0  0
    0.5018   -1.4090   -3.1035 C   0  0  0  0  0  4           0  0  0
  1  2  2  0     0  0
  1  3  2  0     0  0
  1  8  1  0     0  0
  1 12  1  0     0  0
  4  9  1  0     0  0
  5 13  1  0     0  0
  5 22  1  0     0  0
  6 13  2  0     0  0
  6 14  1  0     0  0
  7 14  2  0     0  0
  7 15  1  0     0  0
  9 23  2  0     0  0
 10 14  1  0     0  0
 10 16  1  0     0  0
 11 15  1  0     0  0
 12 18  2  0     0  0
 12 19  1  0     0  0
 13 17  1  0     0  0
 15 17  2  0     0  0
 16 20  2  0     0  0
 16 21  1  0     0  0
 17 23  1  0     0  0
 18 20  1  0     0  0
 19 21  2  0     0  0
 22 24  1  0     0  0
 23 30  1  0     0  0
 24 25  1  0     0  0
 24 26  1  0     0  0
 25 27  1  0     0  0
 26 28  1  0     0  0
 27 29  1  0     0  0
 28 29  1  0     0  0
M  END
> <Compound >
5

> <standard_type>
pIC50

> <# Confs.>
25

> <canonical_smiles>
NC1=C(/C(C)=N/O)C(OCC2CCCCC2)=NC(NC3=CC=C(S(=O)(N)=O)C=C3)=N1

> <standard_relation>
=

> <predicted_activity_value>
6.724919101543142

> <actual_activity_value>
6.931814138253839

> <Publication ID>
nan

> <standard_units>
nM

> hash
9398626533695141173

$$$$
4
XXILIB    08252103513D 0   0.00000     0.00000

 30 32  0     1  0            999 V2000
   -1.0106    0.1505    8.0696 S   0  0  1  0  0  6           0  0  0
   -1.7414    1.2374    8.6913 O   0  0  0  0  0  2           0  0  0
    0.4379    0.1030    8.1182 O   0  0  0  0  0  2           0  0  0
    1.0735    0.8743   -4.2700 O   0  0  0  0  0  2           0  0  0
    1.3870   -0.0000    0.0000 O   0  0  0  0  0  2           0  0  0
   -0.6530   -0.0000    1.1842 N   0  0  0  0  0  3           0  0  0
   -2.7112   -0.1212    0.0048 N   0  0  0  0  0  3           0  0  0
   -1.6423   -1.3363    8.6153 N   0  0  0  0  0  3           0  0  0
    0.3701    1.0611   -3.0778 N   0  0  0  0  0  3           0  0  0
   -2.7258   -0.0779    2.3596 N   0  0  0  0  0  3           0  0  0
   -2.8135   -0.1777   -2.3397 N   0  0  0  0  0  3           0  0  0
   -1.4866    0.0932    6.3716 C   0  0  0  0  0  4           0  0  0
    0.0000    0.0000    0.0000 C   0  0  0  0  0  4           0  0  0
   -2.0018   -0.0641    1.1555 C   0  0  0  0  0  4           0  0  0
   -2.0497   -0.1032   -1.1794 C   0  0  0  0  0  4           0  0  0
   -2.2903   -0.0349    3.6860 C   0  0  0  0  0  4           0  0  0
   -0.6576   -0.0563   -1.2222 C   0  0  0  0  0  4           0  0  0
   -2.7203    0.6192    5.9968 C   0  0  0  0  0  4           0  0  0
   -0.6527   -0.5056    5.4317 C   0  0  0  0  0  4           0  0  0
   -3.1135    0.5567    4.6585 C   0  0  0  0  0  4           0  0  0
   -1.0562   -0.5657    4.0943 C   0  0  0  0  0  4           0  0  0
    1.9722   -0.0000    1.3020 C   0  0  0  0  0  4           0  0  0
    0.0908   -0.0741   -2.5071 C   0  0  0  0  0  4           0  0  0
    3.4918    0.0000    1.1543 C   0  0  1  0  0  4           0  0  0
    4.1905   -0.0000    2.5234 C   0  0  0  0  0  4           0  0  0
    3.9756   -1.1920    0.3127 C   0  0  0  0  0  4           0  0  0
    5.7108    0.0039    2.3762 C   0  0  0  0  0  4           0  0  0
    5.4956   -1.1906    0.1614 C   0  0  0  0  0  4           0  0  0
    6.1967   -1.1587    1.5161 C   0  0  0  0  0  4           0  0  0
    0.5018   -1.4090   -3.1035 C   0  0  0  0  0  4           0  0  0
  1  2  2  0     0  0
  1  3  2  0     0  0
  1  8  1  0     0  0
  1 12  1  0     0  0
  4  9  1  0     0  0
  5 13  1  0     0  0
  5 22  1  0     0  0
  6 13  2  0     0  0
  6 14  1  0     0  0
  7 14  2  0     0  0
  7 15  1  0     0  0
  9 23  2  0     0  0
 10 14  1  0     0  0
 10 16  1  0     0  0
 11 15  1  0     0  0
 12 18  2  0     0  0
 12 19  1  0     0  0
 13 17  1  0     0  0
 15 17  2  0     0  0
 16 20  2  0     0  0
 16 21  1  0     0  0
 17 23  1  0     0  0
 18 20  1  0     0  0
 19 21  2  0     0  0
 22 24  1  0     0  0
 23 30  1  0     0  0
 24 25  1  0     0  0
 24 26  1  0     0  0
 25 27  1  0     0  0
 26 28  1  0     0  0
 27 29  1  0     0  0
 28 29  1  0     0  0
M  END
> <Compound >
5

> <standard_type>
pIC50

> <# Confs.>
25

> <canonical_smiles>
NC1=C(/C(C)=N/O)C(OCC2CCCCC2)=NC(NC3=CC=C(S(=O)(N)=O)C=C3)=N1

> <standard_relation>
=

> <predicted_activity_value>
6.724919101543142

> <actual_activity_value>
6.931814138253839

> <Publication ID>
nan

> <standard_units>
nM

> hash
9398626533695141173

$$$$
4
XXILIB    08252103513D 0   0.00000     0.00000

 30 32  0     1  0            999 V2000
   -1.0106    0.1505    8.0696 S   0  0  1  0  0  6           0  0  0
   -1.7414    1.2374    8.6913 O   0  0  0  0  0  2           0  0  0
    0.4379    0.1030    8.1182 O   0  0  0  0  0  2           0  0  0
    1.0735    0.8743   -4.2700 O   0  0  0  0  0  2           0  0  0
    1.3870   -0.0000    0.0000 O   0  0  0  0  0  2           0  0  0
   -0.6530   -0.0000    1.1842 N   0  0  0  0  0  3           0  0  0
   -2.7112   -0.1212    0.0048 N   0  0  0  0  0  3           0  0  0
   -1.6423   -1.3363    8.6153 N   0  0  0  0  0  3           0  0  0
    0.3701    1.0611   -3.0778 N   0  0  0  0  0  3           0  0  0
   -2.7258   -0.0779    2.3596 N   0  0  0  0  0  3           0  0  0
   -2.8135   -0.1777   -2.3397 N   0  0  0  0  0  3           0  0  0
   -1.4866    0.0932    6.3716 C   0  0  0  0  0  4           0  0  0
    0.0000    0.0000    0.0000 C   0  0  0  0  0  4           0  0  0
   -2.0018   -0.0641    1.1555 C   0  0  0  0  0  4           0  0  0
   -2.0497   -0.1032   -1.1794 C   0  0  0  0  0  4           0  0  0
   -2.2903   -0.0349    3.6860 C   0  0  0  0  0  4           0  0  0
   -0.6576   -0.0563   -1.2222 C   0  0  0  0  0  4           0  0  0
   -2.7203    0.6192    5.9968 C   0  0  0  0  0  4           0  0  0
   -0.6527   -0.5056    5.4317 C   0  0  0  0  0  4           0  0  0
   -3.1135    0.5567    4.6585 C   0  0  0  0  0  4           0  0  0
   -1.0562   -0.5657    4.0943 C   0  0  0  0  0  4           0  0  0
    1.9722   -0.0000    1.3020 C   0  0  0  0  0  4           0  0  0
    0.0908   -0.0741   -2.5071 C   0  0  0  0  0  4           0  0  0
    3.4918    0.0000    1.1543 C   0  0  1  0  0  4           0  0  0
    3.9829   -1.2386    0.3880 C   0  0  0  0  0  4           0  0  0
    3.9905    1.2809    0.4659 C   0  0  0  0  0  4           0  0  0
    5.5035   -1.2411    0.2432 C   0  0  0  0  0  4           0  0  0
    5.5111    1.2832    0.3211 C   0  0  0  0  0  4           0  0  0
    6.0094    0.0408   -0.4110 C   0  0  0  0  0  4           0  0  0
    0.5018   -1.4090   -3.1035 C   0  0  0  0  0  4           0  0  0
  1  2  2  0     0  0
  1  3  2  0     0  0
  1  8  1  0     0  0
  1 12  1  0     0  0
  4  9  1  0     0  0
  5 13  1  0     0  0
  5 22  1  0     0  0
  6 13  2  0     0  0
  6 14  1  0     0  0
  7 14  2  0     0  0
  7 15  1  0     0  0
  9 23  2  0     0  0
 10 14  1  0     0  0
 10 16  1  0     0  0
 11 15  1  0     0  0
 12 18  2  0     0  0
 12 19  1  0     0  0
 13 17  1  0     0  0
 15 17  2  0     0  0
 16 20  2  0     0  0
 16 21  1  0     0  0
 17 23  1  0     0  0
 18 20  1  0     0  0
 19 21  2  0     0  0
 22 24  1  0     0  0
 23 30  1  0     0  0
 24 25  1  0     0  0
 24 26  1  0     0  0
 25 27  1  0     0  0
 26 28  1  0     0  0
 27 29  1  0     0  0
 28 29  1  0     0  0
M  END
> <Compound >
5

> <standard_type>
pIC50

> <# Confs.>
25

> <canonical_smiles>
NC1=C(/C(C)=N/O)C(OCC2CCCCC2)=NC(NC3=CC=C(S(=O)(N)=O)C=C3)=N1

> <standard_relation>
=

> <predicted_activity_value>
6.724919101543142

> <actual_activity_value>
6.931814138253839

> <Publication ID>
nan

> <standard_units>
nM

> hash
9398626533695141173

$$$$
4
XXILIB    08252103513D 0   0.00000     0.00000

 30 32  0     1  0            999 V2000
   -1.0106    0.1505    8.0696 S   0  0  1  0  0  6           0  0  0
   -0.0444   -0.9081    8.2879 O   0  0  0  0  0  2           0  0  0
   -2.2238    0.2263    8.8602 O   0  0  0  0  0  2           0  0  0
    1.0735    0.8743   -4.2700 O   0  0  0  0  0  2           0  0  0
    1.3870   -0.0000    0.0000 O   0  0  0  0  0  2           0  0  0
   -0.6530   -0.0000    1.1842 N   0  0  0  0  0  3           0  0  0
   -2.7112   -0.1212    0.0048 N   0  0  0  0  0  3           0  0  0
   -0.2135    1.6572    8.1138 N   0  0  0  0  0  3           0  0  0
    0.3701    1.0611   -3.0778 N   0  0  0  0  0  3           0  0  0
   -2.7258   -0.0779    2.3596 N   0  0  0  0  0  3           0  0  0
   -2.8135   -0.1777   -2.3397 N   0  0  0  0  0  3           0  0  0
   -1.4866    0.0932    6.3716 C   0  0  0  0  0  4           0  0  0
    0.0000    0.0000    0.0000 C   0  0  0  0  0  4           0  0  0
   -2.0018   -0.0641    1.1555 C   0  0  0  0  0  4           0  0  0
   -2.0497   -0.1032   -1.1794 C   0  0  0  0  0  4           0  0  0
   -2.2903   -0.0349    3.6860 C   0  0  0  0  0  4           0  0  0
   -0.6576   -0.0563   -1.2222 C   0  0  0  0  0  4           0  0  0
   -2.7203    0.6192    5.9968 C   0  0  0  0  0  4           0  0  0
   -0.6527   -0.5056    5.4317 C   0  0  0  0  0  4           0  0  0
   -3.1135    0.5567    4.6585 C   0  0  0  0  0  4           0  0  0
   -1.0562   -0.5657    4.0943 C   0  0  0  0  0  4           0  0  0
    1.9722   -0.0000    1.3020 C   0  0  0  0  0  4           0  0  0
    0.0908   -0.0741   -2.5071 C   0  0  0  0  0  4           0  0  0
    3.4918    0.0000    1.1543 C   0  0  1  0  0  4           0  0  0
    4.0091   -1.2316    0.3896 C   0  0  0  0  0  4           0  0  0
    4.1865    0.1146    2.5195 C   0  0  0  0  0  4           0  0  0
    3.9276   -2.5192    1.2087 C   0  0  0  0  0  4           0  0  0
    4.1005   -1.1715    3.3398 C   0  0  0  0  0  4           0  0  0
    4.6250   -2.3715    2.5577 C   0  0  0  0  0  4           0  0  0
    0.5018   -1.4090   -3.1035 C   0  0  0  0  0  4           0  0  0
  1  2  2  0     0  0
  1  3  2  0     0  0
  1  8  1  0     0  0
  1 12  1  0     0  0
  4  9  1  0     0  0
  5 13  1  0     0  0
  5 22  1  0     0  0
  6 13  2  0     0  0
  6 14  1  0     0  0
  7 14  2  0     0  0
  7 15  1  0     0  0
  9 23  2  0     0  0
 10 14  1  0     0  0
 10 16  1  0     0  0
 11 15  1  0     0  0
 12 18  2  0     0  0
 12 19  1  0     0  0
 13 17  1  0     0  0
 15 17  2  0     0  0
 16 20  2  0     0  0
 16 21  1  0     0  0
 17 23  1  0     0  0
 18 20  1  0     0  0
 19 21  2  0     0  0
 22 24  1  0     0  0
 23 30  1  0     0  0
 24 25  1  0     0  0
 24 26  1  0     0  0
 25 27  1  0     0  0
 26 28  1  0     0  0
 27 29  1  0     0  0
 28 29  1  0     0  0
M  END
> <Compound >
5

> <standard_type>
pIC50

> <# Confs.>
25

> <canonical_smiles>
NC1=C(/C(C)=N/O)C(OCC2CCCCC2)=NC(NC3=CC=C(S(=O)(N)=O)C=C3)=N1

> <standard_relation>
=

> <predicted_activity_value>
6.724919101543142

> <actual_activity_value>
6.931814138253839

> <Publication ID>
nan

> <standard_units>
nM

> hash
9398626533695141173

$$$$
4
XXILIB    08252103513D 0   0.00000     0.00000

 30 32  0     1  0            999 V2000
   -0.9741   -0.0032    8.0625 S   0  0  1  0  0  6           0  0  0
    0.4597    0.2105    8.0862 O   0  0  0  0  0  2           0  0  0
   -1.5635   -1.1708    8.6887 O   0  0  0  0  0  2           0  0  0
    1.0735    0.8743   -4.2700 O   0  0  0  0  0  2           0  0  0
    1.3870   -0.0000    0.0000 O   0  0  0  0  0  2           0  0  0
   -0.6530   -0.0000    1.1842 N   0  0  0  0  0  3           0  0  0
   -2.7112   -0.1212    0.0048 N   0  0  0  0  0  3           0  0  0
   -1.7609    1.3989    8.6302 N   0  0  0  0  0  3           0  0  0
    0.3701    1.0611   -3.0778 N   0  0  0  0  0  3           0  0  0
   -2.7258   -0.0779    2.3596 N   0  0  0  0  0  3           0  0  0
   -2.8135   -0.1777   -2.3397 N   0  0  0  0  0  3           0  0  0
   -1.4850    0.0080    6.3738 C   0  0  0  0  0  4           0  0  0
    0.0000    0.0000    0.0000 C   0  0  0  0  0  4           0  0  0
   -2.0018   -0.0641    1.1555 C   0  0  0  0  0  4           0  0  0
   -2.0497   -0.1032   -1.1794 C   0  0  0  0  0  4           0  0  0
   -2.2903   -0.0349    3.6860 C   0  0  0  0  0  4           0  0  0
   -0.6576   -0.0563   -1.2222 C   0  0  0  0  0  4           0  0  0
   -2.6573   -0.6535    6.0173 C   0  0  0  0  0  4           0  0  0
   -0.7021    0.6383    5.4108 C   0  0  0  0  0  4           0  0  0
   -3.0557   -0.6682    4.6792 C   0  0  0  0  0  4           0  0  0
   -1.1079    0.6160    4.0730 C   0  0  0  0  0  4           0  0  0
    1.9722   -0.0000    1.3020 C   0  0  0  0  0  4           0  0  0
    0.0908   -0.0741   -2.5071 C   0  0  0  0  0  4           0  0  0
    3.4918    0.0000    1.1543 C   0  0  1  0  0  4           0  0  0
    4.0091   -1.2316    0.3896 C   0  0  0  0  0  4           0  0  0
    4.1865    0.1146    2.5195 C   0  0  0  0  0  4           0  0  0
    3.9276   -2.5192    1.2087 C   0  0  0  0  0  4           0  0  0
    4.1005   -1.1715    3.3398 C   0  0  0  0  0  4           0  0  0
    4.6250   -2.3715    2.5577 C   0  0  0  0  0  4           0  0  0
    0.5018   -1.4090   -3.1035 C   0  0  0  0  0  4           0  0  0
  1  2  2  0     0  0
  1  3  2  0     0  0
  1  8  1  0     0  0
  1 12  1  0     0  0
  4  9  1  0     0  0
  5 13  1  0     0  0
  5 22  1  0     0  0
  6 13  2  0     0  0
  6 14  1  0     0  0
  7 14  2  0     0  0
  7 15  1  0     0  0
  9 23  2  0     0  0
 10 14  1  0     0  0
 10 16  1  0     0  0
 11 15  1  0     0  0
 12 18  2  0     0  0
 12 19  1  0     0  0
 13 17  1  0     0  0
 15 17  2  0     0  0
 16 20  2  0     0  0
 16 21  1  0     0  0
 17 23  1  0     0  0
 18 20  1  0     0  0
 19 21  2  0     0  0
 22 24  1  0     0  0
 23 30  1  0     0  0
 24 25  1  0     0  0
 24 26  1  0     0  0
 25 27  1  0     0  0
 26 28  1  0     0  0
 27 29  1  0     0  0
 28 29  1  0     0  0
M  END
> <Compound >
5

> <standard_type>
pIC50

> <# Confs.>
25

> <canonical_smiles>
NC1=C(/C(C)=N/O)C(OCC2CCCCC2)=NC(NC3=CC=C(S(=O)(N)=O)C=C3)=N1

> <standard_relation>
=

> <predicted_activity_value>
6.724919101543142

> <actual_activity_value>
6.931814138253839

> <Publication ID>
nan

> <standard_units>
nM

> hash
9398626533695141173

$$$$
4
XXILIB    08252103513D 0   0.00000     0.00000

 30 32  0     1  0            999 V2000
   -0.9741   -0.0032    8.0625 S   0  0  1  0  0  6           0  0  0
   -2.1551   -0.2225    8.8744 O   0  0  0  0  0  2           0  0  0
   -0.1321    1.1588    8.2711 O   0  0  0  0  0  2           0  0  0
    1.0735    0.8743   -4.2700 O   0  0  0  0  0  2           0  0  0
    1.3870   -0.0000    0.0000 O   0  0  0  0  0  2           0  0  0
   -0.6530   -0.0000    1.1842 N   0  0  0  0  0  3           0  0  0
   -2.7112   -0.1212    0.0048 N   0  0  0  0  0  3           0  0  0
   -0.0097   -1.4092    8.0816 N   0  0  0  0  0  3           0  0  0
    0.3701    1.0611   -3.0778 N   0  0  0  0  0  3           0  0  0
   -2.7258   -0.0779    2.3596 N   0  0  0  0  0  3           0  0  0
   -2.8135   -0.1777   -2.3397 N   0  0  0  0  0  3           0  0  0
   -1.4850    0.0080    6.3738 C   0  0  0  0  0  4           0  0  0
    0.0000    0.0000    0.0000 C   0  0  0  0  0  4           0  0  0
   -2.0018   -0.0641    1.1555 C   0  0  0  0  0  4           0  0  0
   -2.0497   -0.1032   -1.1794 C   0  0  0  0  0  4           0  0  0
   -2.2903   -0.0349    3.6860 C   0  0  0  0  0  4           0  0  0
   -0.6576   -0.0563   -1.2222 C   0  0  0  0  0  4           0  0  0
   -2.6573   -0.6535    6.0173 C   0  0  0  0  0  4           0  0  0
   -0.7021    0.6383    5.4108 C   0  0  0  0  0  4           0  0  0
   -3.0557   -0.6682    4.6792 C   0  0  0  0  0  4           0  0  0
   -1.1079    0.6160    4.0730 C   0  0  0  0  0  4           0  0  0
    1.9722   -0.0000    1.3020 C   0  0  0  0  0  4           0  0  0
    0.0908   -0.0741   -2.5071 C   0  0  0  0  0  4           0  0  0
    3.4918    0.0000    1.1543 C   0  0  1  0  0  4           0  0  0
    4.0091   -1.2316    0.3896 C   0  0  0  0  0  4           0  0  0
    4.1865    0.1146    2.5195 C   0  0  0  0  0  4           0  0  0
    3.9276   -2.5192    1.2087 C   0  0  0  0  0  4           0  0  0
    4.1005   -1.1715    3.3398 C   0  0  0  0  0  4           0  0  0
    4.6250   -2.3715    2.5577 C   0  0  0  0  0  4           0  0  0
    0.5018   -1.4090   -3.1035 C   0  0  0  0  0  4           0  0  0
  1  2  2  0     0  0
  1  3  2  0     0  0
  1  8  1  0     0  0
  1 12  1  0     0  0
  4  9  1  0     0  0
  5 13  1  0     0  0
  5 22  1  0     0  0
  6 13  2  0     0  0
  6 14  1  0     0  0
  7 14  2  0     0  0
  7 15  1  0     0  0
  9 23  2  0     0  0
 10 14  1  0     0  0
 10 16  1  0     0  0
 11 15  1  0     0  0
 12 18  2  0     0  0
 12 19  1  0     0  0
 13 17  1  0     0  0
 15 17  2  0     0  0
 16 20  2  0     0  0
 16 21  1  0     0  0
 17 23  1  0     0  0
 18 20  1  0     0  0
 19 21  2  0     0  0
 22 24  1  0     0  0
 23 30  1  0     0  0
 24 25  1  0     0  0
 24 26  1  0     0  0
 25 27  1  0     0  0
 26 28  1  0     0  0
 27 29  1  0     0  0
 28 29  1  0     0  0
M  END
> <Compound >
5

> <standard_type>
pIC50

> <# Confs.>
25

> <canonical_smiles>
NC1=C(/C(C)=N/O)C(OCC2CCCCC2)=NC(NC3=CC=C(S(=O)(N)=O)C=C3)=N1

> <standard_relation>
=

> <predicted_activity_value>
6.724919101543142

> <actual_activity_value>
6.931814138253839

> <Publication ID>
nan

> <standard_units>
nM

> hash
9398626533695141173

$$$$
4
XXILIB    08252103513D 0   0.00000     0.00000

 30 32  0     1  0            999 V2000
   -1.0106    0.1505    8.0696 S   0  0  1  0  0  6           0  0  0
   -1.7414    1.2374    8.6913 O   0  0  0  0  0  2           0  0  0
    0.4379    0.1030    8.1182 O   0  0  0  0  0  2           0  0  0
    1.0735    0.8743   -4.2700 O   0  0  0  0  0  2           0  0  0
    1.3870   -0.0000    0.0000 O   0  0  0  0  0  2           0  0  0
   -0.6530   -0.0000    1.1842 N   0  0  0  0  0  3           0  0  0
   -2.7112   -0.1212    0.0048 N   0  0  0  0  0  3           0  0  0
   -1.6423   -1.3363    8.6153 N   0  0  0  0  0  3           0  0  0
    0.3701    1.0611   -3.0778 N   0  0  0  0  0  3           0  0  0
   -2.7258   -0.0779    2.3596 N   0  0  0  0  0  3           0  0  0
   -2.8135   -0.1777   -2.3397 N   0  0  0  0  0  3           0  0  0
   -1.4866    0.0932    6.3716 C   0  0  0  0  0  4           0  0  0
    0.0000    0.0000    0.0000 C   0  0  0  0  0  4           0  0  0
   -2.0018   -0.0641    1.1555 C   0  0  0  0  0  4           0  0  0
   -2.0497   -0.1032   -1.1794 C   0  0  0  0  0  4           0  0  0
   -2.2903   -0.0349    3.6860 C   0  0  0  0  0  4           0  0  0
   -0.6576   -0.0563   -1.2222 C   0  0  0  0  0  4           0  0  0
   -2.7203    0.6192    5.9968 C   0  0  0  0  0  4           0  0  0
   -0.6527   -0.5056    5.4317 C   0  0  0  0  0  4           0  0  0
   -3.1135    0.5567    4.6585 C   0  0  0  0  0  4           0  0  0
   -1.0562   -0.5657    4.0943 C   0  0  0  0  0  4           0  0  0
    1.9722   -0.0000    1.3020 C   0  0  0  0  0  4           0  0  0
    0.0908   -0.0741   -2.5071 C   0  0  0  0  0  4           0  0  0
    3.4918    0.0000    1.1543 C   0  0  1  0  0  4           0  0  0
    4.0091   -1.2316    0.3896 C   0  0  0  0  0  4           0  0  0
    4.1865    0.1146    2.5195 C   0  0  0  0  0  4           0  0  0
    3.9276   -2.5192    1.2087 C   0  0  0  0  0  4           0  0  0
    4.1005   -1.1715    3.3398 C   0  0  0  0  0  4           0  0  0
    4.6250   -2.3715    2.5577 C   0  0  0  0  0  4           0  0  0
    0.5018   -1.4090   -3.1035 C   0  0  0  0  0  4           0  0  0
  1  2  2  0     0  0
  1  3  2  0     0  0
  1  8  1  0     0  0
  1 12  1  0     0  0
  4  9  1  0     0  0
  5 13  1  0     0  0
  5 22  1  0     0  0
  6 13  2  0     0  0
  6 14  1  0     0  0
  7 14  2  0     0  0
  7 15  1  0     0  0
  9 23  2  0     0  0
 10 14  1  0     0  0
 10 16  1  0     0  0
 11 15  1  0     0  0
 12 18  2  0     0  0
 12 19  1  0     0  0
 13 17  1  0     0  0
 15 17  2  0     0  0
 16 20  2  0     0  0
 16 21  1  0     0  0
 17 23  1  0     0  0
 18 20  1  0     0  0
 19 21  2  0     0  0
 22 24  1  0     0  0
 23 30  1  0     0  0
 24 25  1  0     0  0
 24 26  1  0     0  0
 25 27  1  0     0  0
 26 28  1  0     0  0
 27 29  1  0     0  0
 28 29  1  0     0  0
M  END
> <Compound >
5

> <standard_type>
pIC50

> <# Confs.>
25

> <canonical_smiles>
NC1=C(/C(C)=N/O)C(OCC2CCCCC2)=NC(NC3=CC=C(S(=O)(N)=O)C=C3)=N1

> <standard_relation>
=

> <predicted_activity_value>
6.724919101543142

> <actual_activity_value>
6.931814138253839

> <Publication ID>
nan

> <standard_units>
nM

> hash
9398626533695141173

$$$$
4
XXILIB    08252103513D 0   0.00000     0.00000

 30 32  0     1  0            999 V2000
   -0.9741   -0.0032    8.0625 S   0  0  1  0  0  6           0  0  0
    0.4597    0.2105    8.0862 O   0  0  0  0  0  2           0  0  0
   -1.5635   -1.1708    8.6887 O   0  0  0  0  0  2           0  0  0
    1.0735    0.8743   -4.2700 O   0  0  0  0  0  2           0  0  0
    1.3870   -0.0000    0.0000 O   0  0  0  0  0  2           0  0  0
   -0.6530   -0.0000    1.1842 N   0  0  0  0  0  3           0  0  0
   -2.7112   -0.1212    0.0048 N   0  0  0  0  0  3           0  0  0
   -1.7609    1.3989    8.6302 N   0  0  0  0  0  3           0  0  0
    0.3701    1.0611   -3.0778 N   0  0  0  0  0  3           0  0  0
   -2.7258   -0.0779    2.3596 N   0  0  0  0  0  3           0  0  0
   -2.8135   -0.1777   -2.3397 N   0  0  0  0  0  3           0  0  0
   -1.4850    0.0080    6.3738 C   0  0  0  0  0  4           0  0  0
    0.0000    0.0000    0.0000 C   0  0  0  0  0  4           0  0  0
   -2.0018   -0.0641    1.1555 C   0  0  0  0  0  4           0  0  0
   -2.0497   -0.1032   -1.1794 C   0  0  0  0  0  4           0  0  0
   -2.2903   -0.0349    3.6860 C   0  0  0  0  0  4           0  0  0
   -0.6576   -0.0563   -1.2222 C   0  0  0  0  0  4           0  0  0
   -2.6573   -0.6535    6.0173 C   0  0  0  0  0  4           0  0  0
   -0.7021    0.6383    5.4108 C   0  0  0  0  0  4           0  0  0
   -3.0557   -0.6682    4.6792 C   0  0  0  0  0  4           0  0  0
   -1.1079    0.6160    4.0730 C   0  0  0  0  0  4           0  0  0
    1.9722   -0.0000    1.3020 C   0  0  0  0  0  4           0  0  0
    0.0908   -0.0741   -2.5071 C   0  0  0  0  0  4           0  0  0
    3.4918    0.0000    1.1543 C   0  0  1  0  0  4           0  0  0
    4.2155   -0.0000    2.5127 C   0  0  0  0  0  4           0  0  0
    3.9700    1.1777    0.2917 C   0  0  0  0  0  4           0  0  0
    4.1247    1.3430    3.2363 C   0  0  0  0  0  4           0  0  0
    3.8744    2.5206    1.0140 C   0  0  0  0  0  4           0  0  0
    4.6051    2.4904    2.3528 C   0  0  0  0  0  4           0  0  0
    0.5018   -1.4090   -3.1035 C   0  0  0  0  0  4           0  0  0
  1  2  2  0     0  0
  1  3  2  0     0  0
  1  8  1  0     0  0
  1 12  1  0     0  0
  4  9  1  0     0  0
  5 13  1  0     0  0
  5 22  1  0     0  0
  6 13  2  0     0  0
  6 14  1  0     0  0
  7 14  2  0     0  0
  7 15  1  0     0  0
  9 23  2  0     0  0
 10 14  1  0     0  0
 10 16  1  0     0  0
 11 15  1  0     0  0
 12 18  2  0     0  0
 12 19  1  0     0  0
 13 17  1  0     0  0
 15 17  2  0     0  0
 16 20  2  0     0  0
 16 21  1  0     0  0
 17 23  1  0     0  0
 18 20  1  0     0  0
 19 21  2  0     0  0
 22 24  1  0     0  0
 23 30  1  0     0  0
 24 25  1  0     0  0
 24 26  1  0     0  0
 25 27  1  0     0  0
 26 28  1  0     0  0
 27 29  1  0     0  0
 28 29  1  0     0  0
M  END
> <Compound >
5

> <standard_type>
pIC50

> <# Confs.>
25

> <canonical_smiles>
NC1=C(/C(C)=N/O)C(OCC2CCCCC2)=NC(NC3=CC=C(S(=O)(N)=O)C=C3)=N1

> <standard_relation>
=

> <predicted_activity_value>
6.724919101543142

> <actual_activity_value>
6.931814138253839

> <Publication ID>
nan

> <standard_units>
nM

> hash
9398626533695141173

$$$$
4
XXILIB    08252103513D 0   0.00000     0.00000

 30 32  0     1  0            999 V2000
   -0.9741   -0.0032    8.0625 S   0  0  1  0  0  6           0  0  0
   -2.1551   -0.2225    8.8744 O   0  0  0  0  0  2           0  0  0
   -0.1321    1.1588    8.2711 O   0  0  0  0  0  2           0  0  0
    1.0735    0.8743   -4.2700 O   0  0  0  0  0  2           0  0  0
    1.3870   -0.0000    0.0000 O   0  0  0  0  0  2           0  0  0
   -0.6530   -0.0000    1.1842 N   0  0  0  0  0  3           0  0  0
   -2.7112   -0.1212    0.0048 N   0  0  0  0  0  3           0  0  0
   -0.0097   -1.4092    8.0816 N   0  0  0  0  0  3           0  0  0
    0.3701    1.0611   -3.0778 N   0  0  0  0  0  3           0  0  0
   -2.7258   -0.0779    2.3596 N   0  0  0  0  0  3           0  0  0
   -2.8135   -0.1777   -2.3397 N   0  0  0  0  0  3           0  0  0
   -1.4850    0.0080    6.3738 C   0  0  0  0  0  4           0  0  0
    0.0000    0.0000    0.0000 C   0  0  0  0  0  4           0  0  0
   -2.0018   -0.0641    1.1555 C   0  0  0  0  0  4           0  0  0
   -2.0497   -0.1032   -1.1794 C   0  0  0  0  0  4           0  0  0
   -2.2903   -0.0349    3.6860 C   0  0  0  0  0  4           0  0  0
   -0.6576   -0.0563   -1.2222 C   0  0  0  0  0  4           0  0  0
   -2.6573   -0.6535    6.0173 C   0  0  0  0  0  4           0  0  0
   -0.7021    0.6383    5.4108 C   0  0  0  0  0  4           0  0  0
   -3.0557   -0.6682    4.6792 C   0  0  0  0  0  4           0  0  0
   -1.1079    0.6160    4.0730 C   0  0  0  0  0  4           0  0  0
    1.9722   -0.0000    1.3020 C   0  0  0  0  0  4           0  0  0
    0.0908   -0.0741   -2.5071 C   0  0  0  0  0  4           0  0  0
    3.4918    0.0000    1.1543 C   0  0  1  0  0  4           0  0  0
    4.2155   -0.0000    2.5127 C   0  0  0  0  0  4           0  0  0
    3.9700    1.1777    0.2917 C   0  0  0  0  0  4           0  0  0
    4.1247    1.3430    3.2363 C   0  0  0  0  0  4           0  0  0
    3.8744    2.5206    1.0140 C   0  0  0  0  0  4           0  0  0
    4.6051    2.4904    2.3528 C   0  0  0  0  0  4           0  0  0
    0.5018   -1.4090   -3.1035 C   0  0  0  0  0  4           0  0  0
  1  2  2  0     0  0
  1  3  2  0     0  0
  1  8  1  0     0  0
  1 12  1  0     0  0
  4  9  1  0     0  0
  5 13  1  0     0  0
  5 22  1  0     0  0
  6 13  2  0     0  0
  6 14  1  0     0  0
  7 14  2  0     0  0
  7 15  1  0     0  0
  9 23  2  0     0  0
 10 14  1  0     0  0
 10 16  1  0     0  0
 11 15  1  0     0  0
 12 18  2  0     0  0
 12 19  1  0     0  0
 13 17  1  0     0  0
 15 17  2  0     0  0
 16 20  2  0     0  0
 16 21  1  0     0  0
 17 23  1  0     0  0
 18 20  1  0     0  0
 19 21  2  0     0  0
 22 24  1  0     0  0
 23 30  1  0     0  0
 24 25  1  0     0  0
 24 26  1  0     0  0
 25 27  1  0     0  0
 26 28  1  0     0  0
 27 29  1  0     0  0
 28 29  1  0     0  0
M  END
> <Compound >
5

> <standard_type>
pIC50

> <# Confs.>
25

> <canonical_smiles>
NC1=C(/C(C)=N/O)C(OCC2CCCCC2)=NC(NC3=CC=C(S(=O)(N)=O)C=C3)=N1

> <standard_relation>
=

> <predicted_activity_value>
6.724919101543142

> <actual_activity_value>
6.931814138253839

> <Publication ID>
nan

> <standard_units>
nM

> hash
9398626533695141173

$$$$
4
XXILIB    08252103513D 0   0.00000     0.00000

 30 32  0     1  0            999 V2000
   -1.0106    0.1505    8.0696 S   0  0  1  0  0  6           0  0  0
   -0.0444   -0.9081    8.2879 O   0  0  0  0  0  2           0  0  0
   -2.2238    0.2263    8.8602 O   0  0  0  0  0  2           0  0  0
    1.0735    0.8743   -4.2700 O   0  0  0  0  0  2           0  0  0
    1.3870   -0.0000    0.0000 O   0  0  0  0  0  2           0  0  0
   -0.6530   -0.0000    1.1842 N   0  0  0  0  0  3           0  0  0
   -2.7112   -0.1212    0.0048 N   0  0  0  0  0  3           0  0  0
   -0.2135    1.6572    8.1138 N   0  0  0  0  0  3           0  0  0
    0.3701    1.0611   -3.0778 N   0  0  0  0  0  3           0  0  0
   -2.7258   -0.0779    2.3596 N   0  0  0  0  0  3           0  0  0
   -2.8135   -0.1777   -2.3397 N   0  0  0  0  0  3           0  0  0
   -1.4866    0.0932    6.3716 C   0  0  0  0  0  4           0  0  0
    0.0000    0.0000    0.0000 C   0  0  0  0  0  4           0  0  0
   -2.0018   -0.0641    1.1555 C   0  0  0  0  0  4           0  0  0
   -2.0497   -0.1032   -1.1794 C   0  0  0  0  0  4           0  0  0
   -2.2903   -0.0349    3.6860 C   0  0  0  0  0  4           0  0  0
   -0.6576   -0.0563   -1.2222 C   0  0  0  0  0  4           0  0  0
   -2.7203    0.6192    5.9968 C   0  0  0  0  0  4           0  0  0
   -0.6527   -0.5056    5.4317 C   0  0  0  0  0  4           0  0  0
   -3.1135    0.5567    4.6585 C   0  0  0  0  0  4           0  0  0
   -1.0562   -0.5657    4.0943 C   0  0  0  0  0  4           0  0  0
    1.9722   -0.0000    1.3020 C   0  0  0  0  0  4           0  0  0
    0.0908   -0.0741   -2.5071 C   0  0  0  0  0  4           0  0  0
    3.4918    0.0000    1.1543 C   0  0  1  0  0  4           0  0  0
    4.2155   -0.0000    2.5127 C   0  0  0  0  0  4           0  0  0
    3.9700    1.1777    0.2917 C   0  0  0  0  0  4           0  0  0
    4.1247    1.3430    3.2363 C   0  0  0  0  0  4           0  0  0
    3.8744    2.5206    1.0140 C   0  0  0  0  0  4           0  0  0
    4.6051    2.4904    2.3528 C   0  0  0  0  0  4           0  0  0
    0.5018   -1.4090   -3.1035 C   0  0  0  0  0  4           0  0  0
  1  2  2  0     0  0
  1  3  2  0     0  0
  1  8  1  0     0  0
  1 12  1  0     0  0
  4  9  1  0     0  0
  5 13  1  0     0  0
  5 22  1  0     0  0
  6 13  2  0     0  0
  6 14  1  0     0  0
  7 14  2  0     0  0
  7 15  1  0     0  0
  9 23  2  0     0  0
 10 14  1  0     0  0
 10 16  1  0     0  0
 11 15  1  0     0  0
 12 18  2  0     0  0
 12 19  1  0     0  0
 13 17  1  0     0  0
 15 17  2  0     0  0
 16 20  2  0     0  0
 16 21  1  0     0  0
 17 23  1  0     0  0
 18 20  1  0     0  0
 19 21  2  0     0  0
 22 24  1  0     0  0
 23 30  1  0     0  0
 24 25  1  0     0  0
 24 26  1  0     0  0
 25 27  1  0     0  0
 26 28  1  0     0  0
 27 29  1  0     0  0
 28 29  1  0     0  0
M  END
> <Compound >
5

> <standard_type>
pIC50

> <# Confs.>
25

> <canonical_smiles>
NC1=C(/C(C)=N/O)C(OCC2CCCCC2)=NC(NC3=CC=C(S(=O)(N)=O)C=C3)=N1

> <standard_relation>
=

> <predicted_activity_value>
6.724919101543142

> <actual_activity_value>
6.931814138253839

> <Publication ID>
nan

> <standard_units>
nM

> hash
9398626533695141173

$$$$
4
XXILIB    08252103513D 0   0.00000     0.00000

 30 32  0     1  0            999 V2000
   -8.5707   -0.3849    3.5175 S   0  0  1  0  0  6           0  0  0
   -9.2274    0.6796    2.7843 O   0  0  0  0  0  2           0  0  0
   -8.6993   -0.4862    4.9583 O   0  0  0  0  0  2           0  0  0
    1.0735    0.8743   -4.2700 O   0  0  0  0  0  2           0  0  0
    1.3870   -0.0000    0.0000 O   0  0  0  0  0  2           0  0  0
   -0.6530   -0.0000    1.1842 N   0  0  0  0  0  3           0  0  0
   -2.7112   -0.1212    0.0048 N   0  0  0  0  0  3           0  0  0
   -8.9683   -1.8839    2.8089 N   0  0  0  0  0  3           0  0  0
    0.3701    1.0611   -3.0778 N   0  0  0  0  0  3           0  0  0
   -2.7258   -0.0779    2.3596 N   0  0  0  0  0  3           0  0  0
   -2.8135   -0.1777   -2.3397 N   0  0  0  0  0  3           0  0  0
   -6.8485   -0.3038    3.1429 C   0  0  0  0  0  4           0  0  0
    0.0000    0.0000    0.0000 C   0  0  0  0  0  4           0  0  0
   -2.0018   -0.0641    1.1555 C   0  0  0  0  0  4           0  0  0
   -2.0497   -0.1032   -1.1794 C   0  0  0  0  0  4           0  0  0
   -4.1010   -0.1387    2.5960 C   0  0  0  0  0  4           0  0  0
   -0.6576   -0.0563   -1.2222 C   0  0  0  0  0  4           0  0  0
   -5.9337   -0.8359    4.0479 C   0  0  0  0  0  4           0  0  0
   -6.4155    0.3190    1.9759 C   0  0  0  0  0  4           0  0  0
   -4.5680   -0.7549    3.7689 C   0  0  0  0  0  4           0  0  0
   -5.0458    0.3976    1.7064 C   0  0  0  0  0  4           0  0  0
    1.9722   -0.0000    1.3020 C   0  0  0  0  0  4           0  0  0
    0.0908   -0.0741   -2.5071 C   0  0  0  0  0  4           0  0  0
    3.4918    0.0000    1.1543 C   0  0  1  0  0  4           0  0  0
    3.9829   -1.2386    0.3880 C   0  0  0  0  0  4           0  0  0
    3.9905    1.2809    0.4659 C   0  0  0  0  0  4           0  0  0
    5.5035   -1.2411    0.2432 C   0  0  0  0  0  4           0  0  0
    5.5111    1.2832    0.3211 C   0  0  0  0  0  4           0  0  0
    6.0094    0.0408   -0.4110 C   0  0  0  0  0  4           0  0  0
    0.5018   -1.4090   -3.1035 C   0  0  0  0  0  4           0  0  0
  1  2  2  0     0  0
  1  3  2  0     0  0
  1  8  1  0     0  0
  1 12  1  0     0  0
  4  9  1  0     0  0
  5 13  1  0     0  0
  5 22  1  0     0  0
  6 13  2  0     0  0
  6 14  1  0     0  0
  7 14  2  0     0  0
  7 15  1  0     0  0
  9 23  2  0     0  0
 10 14  1  0     0  0
 10 16  1  0     0  0
 11 15  1  0     0  0
 12 18  2  0     0  0
 12 19  1  0     0  0
 13 17  1  0     0  0
 15 17  2  0     0  0
 16 20  2  0     0  0
 16 21  1  0     0  0
 17 23  1  0     0  0
 18 20  1  0     0  0
 19 21  2  0     0  0
 22 24  1  0     0  0
 23 30  1  0     0  0
 24 25  1  0     0  0
 24 26  1  0     0  0
 25 27  1  0     0  0
 26 28  1  0     0  0
 27 29  1  0     0  0
 28 29  1  0     0  0
M  END
> <Compound >
5

> <standard_type>
pIC50

> <# Confs.>
25

> <canonical_smiles>
NC1=C(/C(C)=N/O)C(OCC2CCCCC2)=NC(NC3=CC=C(S(=O)(N)=O)C=C3)=N1

> <standard_relation>
=

> <predicted_activity_value>
6.724919101543142

> <actual_activity_value>
6.931814138253839

> <Publication ID>
nan

> <standard_units>
nM

> hash
9398626533695141173

$$$$
4
XXILIB    08252103513D 0   0.00000     0.00000

 30 32  0     1  0            999 V2000
   -8.5707   -0.3849    3.5175 S   0  0  1  0  0  6           0  0  0
   -9.2274    0.6796    2.7843 O   0  0  0  0  0  2           0  0  0
   -8.6993   -0.4862    4.9583 O   0  0  0  0  0  2           0  0  0
    1.0735    0.8743   -4.2700 O   0  0  0  0  0  2           0  0  0
    1.3870   -0.0000    0.0000 O   0  0  0  0  0  2           0  0  0
   -0.6530   -0.0000    1.1842 N   0  0  0  0  0  3           0  0  0
   -2.7112   -0.1212    0.0048 N   0  0  0  0  0  3           0  0  0
   -8.9683   -1.8839    2.8089 N   0  0  0  0  0  3           0  0  0
    0.3701    1.0611   -3.0778 N   0  0  0  0  0  3           0  0  0
   -2.7258   -0.0779    2.3596 N   0  0  0  0  0  3           0  0  0
   -2.8135   -0.1777   -2.3397 N   0  0  0  0  0  3           0  0  0
   -6.8485   -0.3038    3.1429 C   0  0  0  0  0  4           0  0  0
    0.0000    0.0000    0.0000 C   0  0  0  0  0  4           0  0  0
   -2.0018   -0.0641    1.1555 C   0  0  0  0  0  4           0  0  0
   -2.0497   -0.1032   -1.1794 C   0  0  0  0  0  4           0  0  0
   -4.1010   -0.1387    2.5960 C   0  0  0  0  0  4           0  0  0
   -0.6576   -0.0563   -1.2222 C   0  0  0  0  0  4           0  0  0
   -5.9337   -0.8359    4.0479 C   0  0  0  0  0  4           0  0  0
   -6.4155    0.3190    1.9759 C   0  0  0  0  0  4           0  0  0
   -4.5680   -0.7549    3.7689 C   0  0  0  0  0  4           0  0  0
   -5.0458    0.3976    1.7064 C   0  0  0  0  0  4           0  0  0
    1.9722   -0.0000    1.3020 C   0  0  0  0  0  4           0  0  0
    0.0908   -0.0741   -2.5071 C   0  0  0  0  0  4           0  0  0
    3.4918    0.0000    1.1543 C   0  0  1  0  0  4           0  0  0
    3.9829    1.2386    0.3880 C   0  0  0  0  0  4           0  0  0
    4.1902   -0.0888    2.5208 C   0  0  0  0  0  4           0  0  0
    5.5028    1.2373    0.2366 C   0  0  0  0  0  4           0  0  0
    5.7106   -0.0926    2.3736 C   0  0  0  0  0  4           0  0  0
    6.2035    1.1178    1.5865 C   0  0  0  0  0  4           0  0  0
    0.5018   -1.4090   -3.1035 C   0  0  0  0  0  4           0  0  0
  1  2  2  0     0  0
  1  3  2  0     0  0
  1  8  1  0     0  0
  1 12  1  0     0  0
  4  9  1  0     0  0
  5 13  1  0     0  0
  5 22  1  0     0  0
  6 13  2  0     0  0
  6 14  1  0     0  0
  7 14  2  0     0  0
  7 15  1  0     0  0
  9 23  2  0     0  0
 10 14  1  0     0  0
 10 16  1  0     0  0
 11 15  1  0     0  0
 12 18  2  0     0  0
 12 19  1  0     0  0
 13 17  1  0     0  0
 15 17  2  0     0  0
 16 20  2  0     0  0
 16 21  1  0     0  0
 17 23  1  0     0  0
 18 20  1  0     0  0
 19 21  2  0     0  0
 22 24  1  0     0  0
 23 30  1  0     0  0
 24 25  1  0     0  0
 24 26  1  0     0  0
 25 27  1  0     0  0
 26 28  1  0     0  0
 27 29  1  0     0  0
 28 29  1  0     0  0
M  END
> <Compound >
5

> <standard_type>
pIC50

> <# Confs.>
25

> <canonical_smiles>
NC1=C(/C(C)=N/O)C(OCC2CCCCC2)=NC(NC3=CC=C(S(=O)(N)=O)C=C3)=N1

> <standard_relation>
=

> <predicted_activity_value>
6.724919101543142

> <actual_activity_value>
6.931814138253839

> <Publication ID>
nan

> <standard_units>
nM

> hash
9398626533695141173

$$$$
4
XXILIB    08252103513D 0   0.00000     0.00000

 30 32  0     1  0            999 V2000
   -8.5832   -0.2307    3.4845 S   0  0  1  0  0  6           0  0  0
   -8.7486   -0.0370    4.9117 O   0  0  0  0  0  2           0  0  0
   -9.1505   -1.3875    2.8191 O   0  0  0  0  0  2           0  0  0
    1.0735    0.8743   -4.2700 O   0  0  0  0  0  2           0  0  0
    1.3870   -0.0000    0.0000 O   0  0  0  0  0  2           0  0  0
   -0.6530   -0.0000    1.1842 N   0  0  0  0  0  3           0  0  0
   -2.7112   -0.1212    0.0048 N   0  0  0  0  0  3           0  0  0
   -9.0666    1.1845    2.6653 N   0  0  0  0  0  3           0  0  0
    0.3701    1.0611   -3.0778 N   0  0  0  0  0  3           0  0  0
   -2.7258   -0.0779    2.3596 N   0  0  0  0  0  3           0  0  0
   -2.8135   -0.1777   -2.3397 N   0  0  0  0  0  3           0  0  0
   -6.8521   -0.2187    3.1439 C   0  0  0  0  0  4           0  0  0
    0.0000    0.0000    0.0000 C   0  0  0  0  0  4           0  0  0
   -2.0018   -0.0641    1.1555 C   0  0  0  0  0  4           0  0  0
   -2.0497   -0.1032   -1.1794 C   0  0  0  0  0  4           0  0  0
   -4.1010   -0.1387    2.5960 C   0  0  0  0  0  4           0  0  0
   -0.6576   -0.0563   -1.2222 C   0  0  0  0  0  4           0  0  0
   -5.9942    0.4368    4.0233 C   0  0  0  0  0  4           0  0  0
   -6.3624   -0.8248    1.9905 C   0  0  0  0  0  4           0  0  0
   -4.6257    0.4700    3.7482 C   0  0  0  0  0  4           0  0  0
   -4.9908   -0.7841    1.7222 C   0  0  0  0  0  4           0  0  0
    1.9722   -0.0000    1.3020 C   0  0  0  0  0  4           0  0  0
    0.0908   -0.0741   -2.5071 C   0  0  0  0  0  4           0  0  0
    3.4918    0.0000    1.1543 C   0  0  1  0  0  4           0  0  0
    3.9829   -1.2386    0.3880 C   0  0  0  0  0  4           0  0  0
    3.9905    1.2809    0.4659 C   0  0  0  0  0  4           0  0  0
    5.5035   -1.2411    0.2432 C   0  0  0  0  0  4           0  0  0
    5.5111    1.2832    0.3211 C   0  0  0  0  0  4           0  0  0
    6.0094    0.0408   -0.4110 C   0  0  0  0  0  4           0  0  0
    0.5018   -1.4090   -3.1035 C   0  0  0  0  0  4           0  0  0
  1  2  2  0     0  0
  1  3  2  0     0  0
  1  8  1  0     0  0
  1 12  1  0     0  0
  4  9  1  0     0  0
  5 13  1  0     0  0
  5 22  1  0     0  0
  6 13  2  0     0  0
  6 14  1  0     0  0
  7 14  2  0     0  0
  7 15  1  0     0  0
  9 23  2  0     0  0
 10 14  1  0     0  0
 10 16  1  0     0  0
 11 15  1  0     0  0
 12 18  2  0     0  0
 12 19  1  0     0  0
 13 17  1  0     0  0
 15 17  2  0     0  0
 16 20  2  0     0  0
 16 21  1  0     0  0
 17 23  1  0     0  0
 18 20  1  0     0  0
 19 21  2  0     0  0
 22 24  1  0     0  0
 23 30  1  0     0  0
 24 25  1  0     0  0
 24 26  1  0     0  0
 25 27  1  0     0  0
 26 28  1  0     0  0
 27 29  1  0     0  0
 28 29  1  0     0  0
M  END
> <Compound >
5

> <standard_type>
pIC50

> <# Confs.>
25

> <canonical_smiles>
NC1=C(/C(C)=N/O)C(OCC2CCCCC2)=NC(NC3=CC=C(S(=O)(N)=O)C=C3)=N1

> <standard_relation>
=

> <predicted_activity_value>
6.724919101543142

> <actual_activity_value>
6.931814138253839

> <Publication ID>
nan

> <standard_units>
nM

> hash
9398626533695141173

$$$$
4
XXILIB    08252103513D 0   0.00000     0.00000

 30 32  0     1  0            999 V2000
   -8.5707   -0.3849    3.5175 S   0  0  1  0  0  6           0  0  0
   -9.2274    0.6796    2.7843 O   0  0  0  0  0  2           0  0  0
   -8.6993   -0.4862    4.9583 O   0  0  0  0  0  2           0  0  0
    1.0735    0.8743   -4.2700 O   0  0  0  0  0  2           0  0  0
    1.3870   -0.0000    0.0000 O   0  0  0  0  0  2           0  0  0
   -0.6530   -0.0000    1.1842 N   0  0  0  0  0  3           0  0  0
   -2.7112   -0.1212    0.0048 N   0  0  0  0  0  3           0  0  0
   -8.9683   -1.8839    2.8089 N   0  0  0  0  0  3           0  0  0
    0.3701    1.0611   -3.0778 N   0  0  0  0  0  3           0  0  0
   -2.7258   -0.0779    2.3596 N   0  0  0  0  0  3           0  0  0
   -2.8135   -0.1777   -2.3397 N   0  0  0  0  0  3           0  0  0
   -6.8485   -0.3038    3.1429 C   0  0  0  0  0  4           0  0  0
    0.0000    0.0000    0.0000 C   0  0  0  0  0  4           0  0  0
   -2.0018   -0.0641    1.1555 C   0  0  0  0  0  4           0  0  0
   -2.0497   -0.1032   -1.1794 C   0  0  0  0  0  4           0  0  0
   -4.1010   -0.1387    2.5960 C   0  0  0  0  0  4           0  0  0
   -0.6576   -0.0563   -1.2222 C   0  0  0  0  0  4           0  0  0
   -5.9337   -0.8359    4.0479 C   0  0  0  0  0  4           0  0  0
   -6.4155    0.3190    1.9759 C   0  0  0  0  0  4           0  0  0
   -4.5680   -0.7549    3.7689 C   0  0  0  0  0  4           0  0  0
   -5.0458    0.3976    1.7064 C   0  0  0  0  0  4           0  0  0
    1.9722   -0.0000    1.3020 C   0  0  0  0  0  4           0  0  0
    0.0908   -0.0741   -2.5071 C   0  0  0  0  0  4           0  0  0
    3.4918    0.0000    1.1543 C   0  0  1  0  0  4           0  0  0
    4.1905   -0.0000    2.5234 C   0  0  0  0  0  4           0  0  0
    3.9756   -1.1920    0.3127 C   0  0  0  0  0  4           0  0  0
    5.7108    0.0039    2.3762 C   0  0  0  0  0  4           0  0  0
    5.4956   -1.1906    0.1614 C   0  0  0  0  0  4           0  0  0
    6.1967   -1.1587    1.5161 C   0  0  0  0  0  4           0  0  0
    0.5018   -1.4090   -3.1035 C   0  0  0  0  0  4           0  0  0
  1  2  2  0     0  0
  1  3  2  0     0  0
  1  8  1  0     0  0
  1 12  1  0     0  0
  4  9  1  0     0  0
  5 13  1  0     0  0
  5 22  1  0     0  0
  6 13  2  0     0  0
  6 14  1  0     0  0
  7 14  2  0     0  0
  7 15  1  0     0  0
  9 23  2  0     0  0
 10 14  1  0     0  0
 10 16  1  0     0  0
 11 15  1  0     0  0
 12 18  2  0     0  0
 12 19  1  0     0  0
 13 17  1  0     0  0
 15 17  2  0     0  0
 16 20  2  0     0  0
 16 21  1  0     0  0
 17 23  1  0     0  0
 18 20  1  0     0  0
 19 21  2  0     0  0
 22 24  1  0     0  0
 23 30  1  0     0  0
 24 25  1  0     0  0
 24 26  1  0     0  0
 25 27  1  0     0  0
 26 28  1  0     0  0
 27 29  1  0     0  0
 28 29  1  0     0  0
M  END
> <Compound >
5

> <standard_type>
pIC50

> <# Confs.>
25

> <canonical_smiles>
NC1=C(/C(C)=N/O)C(OCC2CCCCC2)=NC(NC3=CC=C(S(=O)(N)=O)C=C3)=N1

> <standard_relation>
=

> <predicted_activity_value>
6.724919101543142

> <actual_activity_value>
6.931814138253839

> <Publication ID>
nan

> <standard_units>
nM

> hash
9398626533695141173

$$$$
4
XXILIB    08252103513D 0   0.00000     0.00000

 30 32  0     1  0            999 V2000
   -8.5832   -0.2307    3.4845 S   0  0  1  0  0  6           0  0  0
   -8.7486   -0.0370    4.9117 O   0  0  0  0  0  2           0  0  0
   -9.1505   -1.3875    2.8191 O   0  0  0  0  0  2           0  0  0
    1.0735    0.8743   -4.2700 O   0  0  0  0  0  2           0  0  0
    1.3870   -0.0000    0.0000 O   0  0  0  0  0  2           0  0  0
   -0.6530   -0.0000    1.1842 N   0  0  0  0  0  3           0  0  0
   -2.7112   -0.1212    0.0048 N   0  0  0  0  0  3           0  0  0
   -9.0666    1.1845    2.6653 N   0  0  0  0  0  3           0  0  0
    0.3701    1.0611   -3.0778 N   0  0  0  0  0  3           0  0  0
   -2.7258   -0.0779    2.3596 N   0  0  0  0  0  3           0  0  0
   -2.8135   -0.1777   -2.3397 N   0  0  0  0  0  3           0  0  0
   -6.8521   -0.2187    3.1439 C   0  0  0  0  0  4           0  0  0
    0.0000    0.0000    0.0000 C   0  0  0  0  0  4           0  0  0
   -2.0018   -0.0641    1.1555 C   0  0  0  0  0  4           0  0  0
   -2.0497   -0.1032   -1.1794 C   0  0  0  0  0  4           0  0  0
   -4.1010   -0.1387    2.5960 C   0  0  0  0  0  4           0  0  0
   -0.6576   -0.0563   -1.2222 C   0  0  0  0  0  4           0  0  0
   -5.9942    0.4368    4.0233 C   0  0  0  0  0  4           0  0  0
   -6.3624   -0.8248    1.9905 C   0  0  0  0  0  4           0  0  0
   -4.6257    0.4700    3.7482 C   0  0  0  0  0  4           0  0  0
   -4.9908   -0.7841    1.7222 C   0  0  0  0  0  4           0  0  0
    1.9722   -0.0000    1.3020 C   0  0  0  0  0  4           0  0  0
    0.0908   -0.0741   -2.5071 C   0  0  0  0  0  4           0  0  0
    3.4918    0.0000    1.1543 C   0  0  1  0  0  4           0  0  0
    3.9829    1.2386    0.3880 C   0  0  0  0  0  4           0  0  0
    4.1902   -0.0888    2.5208 C   0  0  0  0  0  4           0  0  0
    5.5028    1.2373    0.2366 C   0  0  0  0  0  4           0  0  0
    5.7106   -0.0926    2.3736 C   0  0  0  0  0  4           0  0  0
    6.2035    1.1178    1.5865 C   0  0  0  0  0  4           0  0  0
    0.5018   -1.4090   -3.1035 C   0  0  0  0  0  4           0  0  0
  1  2  2  0     0  0
  1  3  2  0     0  0
  1  8  1  0     0  0
  1 12  1  0     0  0
  4  9  1  0     0  0
  5 13  1  0     0  0
  5 22  1  0     0  0
  6 13  2  0     0  0
  6 14  1  0     0  0
  7 14  2  0     0  0
  7 15  1  0     0  0
  9 23  2  0     0  0
 10 14  1  0     0  0
 10 16  1  0     0  0
 11 15  1  0     0  0
 12 18  2  0     0  0
 12 19  1  0     0  0
 13 17  1  0     0  0
 15 17  2  0     0  0
 16 20  2  0     0  0
 16 21  1  0     0  0
 17 23  1  0     0  0
 18 20  1  0     0  0
 19 21  2  0     0  0
 22 24  1  0     0  0
 23 30  1  0     0  0
 24 25  1  0     0  0
 24 26  1  0     0  0
 25 27  1  0     0  0
 26 28  1  0     0  0
 27 29  1  0     0  0
 28 29  1  0     0  0
M  END
> <Compound >
5

> <standard_type>
pIC50

> <# Confs.>
25

> <canonical_smiles>
NC1=C(/C(C)=N/O)C(OCC2CCCCC2)=NC(NC3=CC=C(S(=O)(N)=O)C=C3)=N1

> <standard_relation>
=

> <predicted_activity_value>
6.724919101543142

> <actual_activity_value>
6.931814138253839

> <Publication ID>
nan

> <standard_units>
nM

> hash
9398626533695141173

$$$$
4
XXILIB    08252103513D 0   0.00000     0.00000

 30 32  0     1  0            999 V2000
   -1.0106    0.1505    8.0696 S   0  0  1  0  0  6           0  0  0
   -1.7414    1.2374    8.6913 O   0  0  0  0  0  2           0  0  0
    0.4379    0.1030    8.1182 O   0  0  0  0  0  2           0  0  0
    1.0735    0.8743   -4.2700 O   0  0  0  0  0  2           0  0  0
    1.3870   -0.0000    0.0000 O   0  0  0  0  0  2           0  0  0
   -0.6530   -0.0000    1.1842 N   0  0  0  0  0  3           0  0  0
   -2.7112   -0.1212    0.0048 N   0  0  0  0  0  3           0  0  0
   -1.6423   -1.3363    8.6153 N   0  0  0  0  0  3           0  0  0
    0.3701    1.0611   -3.0778 N   0  0  0  0  0  3           0  0  0
   -2.7258   -0.0779    2.3596 N   0  0  0  0  0  3           0  0  0
   -2.8135   -0.1777   -2.3397 N   0  0  0  0  0  3           0  0  0
   -1.4866    0.0932    6.3716 C   0  0  0  0  0  4           0  0  0
    0.0000    0.0000    0.0000 C   0  0  0  0  0  4           0  0  0
   -2.0018   -0.0641    1.1555 C   0  0  0  0  0  4           0  0  0
   -2.0497   -0.1032   -1.1794 C   0  0  0  0  0  4           0  0  0
   -2.2903   -0.0349    3.6860 C   0  0  0  0  0  4           0  0  0
   -0.6576   -0.0563   -1.2222 C   0  0  0  0  0  4           0  0  0
   -2.7203    0.6192    5.9968 C   0  0  0  0  0  4           0  0  0
   -0.6527   -0.5056    5.4317 C   0  0  0  0  0  4           0  0  0
   -3.1135    0.5567    4.6585 C   0  0  0  0  0  4           0  0  0
   -1.0562   -0.5657    4.0943 C   0  0  0  0  0  4           0  0  0
    1.9722   -0.0000    1.3020 C   0  0  0  0  0  4           0  0  0
    0.0908   -0.0741   -2.5071 C   0  0  0  0  0  4           0  0  0
    3.4918    0.0000    1.1543 C   0  0  1  0  0  4           0  0  0
    4.2155   -0.0000    2.5127 C   0  0  0  0  0  4           0  0  0
    3.9700    1.1777    0.2917 C   0  0  0  0  0  4           0  0  0
    4.1247    1.3430    3.2363 C   0  0  0  0  0  4           0  0  0
    3.8744    2.5206    1.0140 C   0  0  0  0  0  4           0  0  0
    4.6051    2.4904    2.3528 C   0  0  0  0  0  4           0  0  0
    0.5018   -1.4090   -3.1035 C   0  0  0  0  0  4           0  0  0
  1  2  2  0     0  0
  1  3  2  0     0  0
  1  8  1  0     0  0
  1 12  1  0     0  0
  4  9  1  0     0  0
  5 13  1  0     0  0
  5 22  1  0     0  0
  6 13  2  0     0  0
  6 14  1  0     0  0
  7 14  2  0     0  0
  7 15  1  0     0  0
  9 23  2  0     0  0
 10 14  1  0     0  0
 10 16  1  0     0  0
 11 15  1  0     0  0
 12 18  2  0     0  0
 12 19  1  0     0  0
 13 17  1  0     0  0
 15 17  2  0     0  0
 16 20  2  0     0  0
 16 21  1  0     0  0
 17 23  1  0     0  0
 18 20  1  0     0  0
 19 21  2  0     0  0
 22 24  1  0     0  0
 23 30  1  0     0  0
 24 25  1  0     0  0
 24 26  1  0     0  0
 25 27  1  0     0  0
 26 28  1  0     0  0
 27 29  1  0     0  0
 28 29  1  0     0  0
M  END
> <Compound >
5

> <standard_type>
pIC50

> <# Confs.>
25

> <canonical_smiles>
NC1=C(/C(C)=N/O)C(OCC2CCCCC2)=NC(NC3=CC=C(S(=O)(N)=O)C=C3)=N1

> <standard_relation>
=

> <predicted_activity_value>
6.724919101543142

> <actual_activity_value>
6.931814138253839

> <Publication ID>
nan

> <standard_units>
nM

> hash
9398626533695141173

$$$$
2
XXILIB    08252103513D 0   0.00000     0.00000

 28 30  0     1  0            999 V2000
   -8.4555    0.1621    3.8139 S   0  0  2  0  0  6           0  0  0
   -9.0944   -0.9371    3.1169 O   0  0  0  0  0  2           0  0  0
   -8.5315    0.2733    5.2573 O   0  0  0  0  0  2           0  0  0
    1.3875    0.0000    0.0000 O   0  0  0  0  0  2           0  0  0
   -0.4388   -0.4655   -3.4907 O   0  0  0  0  0  2           0  0  0
   -0.6488   -0.0000    1.1871 N   0  0  0  0  0  3           0  0  0
   -2.7121    0.0362    0.0156 N   0  0  0  0  0  3           0  0  0
   -8.9453    1.6350    3.1092 N   0  0  0  0  0  3           0  0  0
   -2.6608    0.0361    2.3983 N   0  0  0  0  0  3           0  0  0
   -2.8354    0.0416   -2.3260 N   0  0  0  0  0  3           0  0  0
   -6.7478    0.1513    3.3717 C   0  0  0  0  0  4           0  0  0
    0.0000    0.0000    0.0000 C   0  0  0  0  0  4           0  0  0
   -1.9967    0.0232    1.1647 C   0  0  0  0  0  4           0  0  0
   -2.0563    0.0131   -1.1720 C   0  0  0  0  0  4           0  0  0
   -4.0247    0.0600    2.6994 C   0  0  0  0  0  4           0  0  0
   -0.6637    0.0163   -1.2212 C   0  0  0  0  0  4           0  0  0
   -5.8099    0.7272    4.2240 C   0  0  0  0  0  4           0  0  0
   -6.3489   -0.4755    2.1938 C   0  0  0  0  0  4           0  0  0
   -4.4563    0.6816    3.8831 C   0  0  0  0  0  4           0  0  0
   -4.9924   -0.5151    1.8606 C   0  0  0  0  0  4           0  0  0
    0.0493    0.0480   -2.4932 C   0  0  0  0  0  4           0  0  0
    1.9716    0.0000    1.3024 C   0  0  0  0  0  4           0  0  0
    3.4946   -0.0000    1.1835 C   0  0  2  0  0  4           0  0  0
    4.0006   -1.2388    0.4266 C   0  0  0  0  0  4           0  0  0
    4.1663    0.0915    2.5632 C   0  0  0  0  0  4           0  0  0
    5.5235   -1.2420    0.3093 C   0  0  0  0  0  4           0  0  0
    5.6893    0.0899    2.4480 C   0  0  0  0  0  4           0  0  0
    6.1948   -1.1237    1.6740 C   0  0  0  0  0  4           0  0  0
  1  2  2  0     0  0
  1  3  2  0     0  0
  1  8  1  0     0  0
  1 11  1  0     0  0
  4 12  1  0     0  0
  4 22  1  0     0  0
  5 21  2  0     0  0
  6 12  2  0     0  0
  6 13  1  0     0  0
  7 13  2  0     0  0
  7 14  1  0     0  0
  9 13  1  0     0  0
  9 15  1  0     0  0
 10 14  1  0     0  0
 11 17  2  0     0  0
 11 18  1  0     0  0
 12 16  1  0     0  0
 14 16  2  0     0  0
 15 19  2  0     0  0
 15 20  1  0     0  0
 16 21  1  0     0  0
 17 19  1  0     0  0
 18 20  2  0     0  0
 22 23  1  0     0  0
 23 24  1  0     0  0
 23 25  1  0     0  0
 24 26  1  0     0  0
 25 27  1  0     0  0
 26 28  1  0     0  0
 27 28  1  0     0  0
M  END
> <Compound >
3

> <standard_type>
pIC50

> <# Confs.>
25

> <canonical_smiles>
NC1=C(C([H])=O)C(OCC2CCCCC2)=NC(NC3=CC=C(S(=O)(N)=O)C=C3)=N1

> <standard_relation>
=

> <predicted_activity_value>
7.346787486224656

> <actual_activity_value>
7.309803919971486

> <Publication ID>
nan

> <standard_units>
nM

> hash
9676751364705744828

$$$$
2
XXILIB    08252103513D 0   0.00000     0.00000

 28 30  0     1  0            999 V2000
   -8.4555    0.1621    3.8139 S   0  0  2  0  0  6           0  0  0
   -9.0944   -0.9371    3.1169 O   0  0  0  0  0  2           0  0  0
   -8.5315    0.2733    5.2573 O   0  0  0  0  0  2           0  0  0
    1.3875    0.0000    0.0000 O   0  0  0  0  0  2           0  0  0
   -0.4388   -0.4655   -3.4907 O   0  0  0  0  0  2           0  0  0
   -0.6488   -0.0000    1.1871 N   0  0  0  0  0  3           0  0  0
   -2.7121    0.0362    0.0156 N   0  0  0  0  0  3           0  0  0
   -8.9453    1.6350    3.1092 N   0  0  0  0  0  3           0  0  0
   -2.6608    0.0361    2.3983 N   0  0  0  0  0  3           0  0  0
   -2.8354    0.0416   -2.3260 N   0  0  0  0  0  3           0  0  0
   -6.7478    0.1513    3.3717 C   0  0  0  0  0  4           0  0  0
    0.0000    0.0000    0.0000 C   0  0  0  0  0  4           0  0  0
   -1.9967    0.0232    1.1647 C   0  0  0  0  0  4           0  0  0
   -2.0563    0.0131   -1.1720 C   0  0  0  0  0  4           0  0  0
   -4.0247    0.0600    2.6994 C   0  0  0  0  0  4           0  0  0
   -0.6637    0.0163   -1.2212 C   0  0  0  0  0  4           0  0  0
   -5.8099    0.7272    4.2240 C   0  0  0  0  0  4           0  0  0
   -6.3489   -0.4755    2.1938 C   0  0  0  0  0  4           0  0  0
   -4.4563    0.6816    3.8831 C   0  0  0  0  0  4           0  0  0
   -4.9924   -0.5151    1.8606 C   0  0  0  0  0  4           0  0  0
    0.0493    0.0480   -2.4932 C   0  0  0  0  0  4           0  0  0
    1.9716    0.0000    1.3024 C   0  0  0  0  0  4           0  0  0
    3.4946   -0.0000    1.1835 C   0  0  2  0  0  4           0  0  0
    4.0006    1.2388    0.4266 C   0  0  0  0  0  4           0  0  0
    4.0058   -1.2823    0.5070 C   0  0  0  0  0  4           0  0  0
    5.5231    1.2391    0.3042 C   0  0  0  0  0  4           0  0  0
    5.5283   -1.2846    0.3850 C   0  0  0  0  0  4           0  0  0
    6.0374   -0.0436   -0.3418 C   0  0  0  0  0  4           0  0  0
  1  2  2  0     0  0
  1  3  2  0     0  0
  1  8  1  0     0  0
  1 11  1  0     0  0
  4 12  1  0     0  0
  4 22  1  0     0  0
  5 21  2  0     0  0
  6 12  2  0     0  0
  6 13  1  0     0  0
  7 13  2  0     0  0
  7 14  1  0     0  0
  9 13  1  0     0  0
  9 15  1  0     0  0
 10 14  1  0     0  0
 11 17  2  0     0  0
 11 18  1  0     0  0
 12 16  1  0     0  0
 14 16  2  0     0  0
 15 19  2  0     0  0
 15 20  1  0     0  0
 16 21  1  0     0  0
 17 19  1  0     0  0
 18 20  2  0     0  0
 22 23  1  0     0  0
 23 24  1  0     0  0
 23 25  1  0     0  0
 24 26  1  0     0  0
 25 27  1  0     0  0
 26 28  1  0     0  0
 27 28  1  0     0  0
M  END
> <Compound >
3

> <standard_type>
pIC50

> <# Confs.>
25

> <canonical_smiles>
NC1=C(C([H])=O)C(OCC2CCCCC2)=NC(NC3=CC=C(S(=O)(N)=O)C=C3)=N1

> <standard_relation>
=

> <predicted_activity_value>
7.346787486224656

> <actual_activity_value>
7.309803919971486

> <Publication ID>
nan

> <standard_units>
nM

> hash
9676751364705744828

$$$$
2
XXILIB    08252103513D 0   0.00000     0.00000

 28 30  0     1  0            999 V2000
   -8.4555    0.1621    3.8139 S   0  0  2  0  0  6           0  0  0
   -9.0944   -0.9371    3.1169 O   0  0  0  0  0  2           0  0  0
   -8.5315    0.2733    5.2573 O   0  0  0  0  0  2           0  0  0
    1.3875    0.0000    0.0000 O   0  0  0  0  0  2           0  0  0
   -0.4388   -0.4655   -3.4907 O   0  0  0  0  0  2           0  0  0
   -0.6488   -0.0000    1.1871 N   0  0  0  0  0  3           0  0  0
   -2.7121    0.0362    0.0156 N   0  0  0  0  0  3           0  0  0
   -8.9453    1.6350    3.1092 N   0  0  0  0  0  3           0  0  0
   -2.6608    0.0361    2.3983 N   0  0  0  0  0  3           0  0  0
   -2.8354    0.0416   -2.3260 N   0  0  0  0  0  3           0  0  0
   -6.7478    0.1513    3.3717 C   0  0  0  0  0  4           0  0  0
    0.0000    0.0000    0.0000 C   0  0  0  0  0  4           0  0  0
   -1.9967    0.0232    1.1647 C   0  0  0  0  0  4           0  0  0
   -2.0563    0.0131   -1.1720 C   0  0  0  0  0  4           0  0  0
   -4.0247    0.0600    2.6994 C   0  0  0  0  0  4           0  0  0
   -0.6637    0.0163   -1.2212 C   0  0  0  0  0  4           0  0  0
   -5.8099    0.7272    4.2240 C   0  0  0  0  0  4           0  0  0
   -6.3489   -0.4755    2.1938 C   0  0  0  0  0  4           0  0  0
   -4.4563    0.6816    3.8831 C   0  0  0  0  0  4           0  0  0
   -4.9924   -0.5151    1.8606 C   0  0  0  0  0  4           0  0  0
    0.0493    0.0480   -2.4932 C   0  0  0  0  0  4           0  0  0
    1.9716    0.0000    1.3024 C   0  0  0  0  0  4           0  0  0
    3.4946   -0.0000    1.1835 C   0  0  2  0  0  4           0  0  0
    4.1676   -0.0000    2.5658 C   0  0  0  0  0  4           0  0  0
    3.9934    1.1908    0.3490 C   0  0  0  0  0  4           0  0  0
    5.6906    0.0029    2.4489 C   0  0  0  0  0  4           0  0  0
    5.5162    1.1947    0.2297 C   0  0  0  0  0  4           0  0  0
    6.1889    1.1673    1.5987 C   0  0  0  0  0  4           0  0  0
  1  2  2  0     0  0
  1  3  2  0     0  0
  1  8  1  0     0  0
  1 11  1  0     0  0
  4 12  1  0     0  0
  4 22  1  0     0  0
  5 21  2  0     0  0
  6 12  2  0     0  0
  6 13  1  0     0  0
  7 13  2  0     0  0
  7 14  1  0     0  0
  9 13  1  0     0  0
  9 15  1  0     0  0
 10 14  1  0     0  0
 11 17  2  0     0  0
 11 18  1  0     0  0
 12 16  1  0     0  0
 14 16  2  0     0  0
 15 19  2  0     0  0
 15 20  1  0     0  0
 16 21  1  0     0  0
 17 19  1  0     0  0
 18 20  2  0     0  0
 22 23  1  0     0  0
 23 24  1  0     0  0
 23 25  1  0     0  0
 24 26  1  0     0  0
 25 27  1  0     0  0
 26 28  1  0     0  0
 27 28  1  0     0  0
M  END
> <Compound >
3

> <standard_type>
pIC50

> <# Confs.>
25

> <canonical_smiles>
NC1=C(C([H])=O)C(OCC2CCCCC2)=NC(NC3=CC=C(S(=O)(N)=O)C=C3)=N1

> <standard_relation>
=

> <predicted_activity_value>
7.346787486224656

> <actual_activity_value>
7.309803919971486

> <Publication ID>
nan

> <standard_units>
nM

> hash
9676751364705744828

$$$$
2
XXILIB    08252103513D 0   0.00000     0.00000

 28 30  0     1  0            999 V2000
   -0.6078    0.1106    7.9999 S   0  0  2  0  0  6           0  0  0
    0.8298   -0.0659    7.9355 O   0  0  0  0  0  2           0  0  0
   -1.1872    1.2736    8.6427 O   0  0  0  0  0  2           0  0  0
    1.3875    0.0000    0.0000 O   0  0  0  0  0  2           0  0  0
   -0.4388   -0.4655   -3.4907 O   0  0  0  0  0  2           0  0  0
   -0.6488    0.0000    1.1871 N   0  0  0  0  0  3           0  0  0
   -2.7121    0.0362    0.0156 N   0  0  0  0  0  3           0  0  0
   -1.3190   -1.2998    8.6411 N   0  0  0  0  0  3           0  0  0
   -2.6608    0.0361    2.3983 N   0  0  0  0  0  3           0  0  0
   -2.8354    0.0416   -2.3260 N   0  0  0  0  0  3           0  0  0
   -1.2251    0.0544    6.3484 C   0  0  0  0  0  4           0  0  0
    0.0000    0.0000    0.0000 C   0  0  0  0  0  4           0  0  0
   -1.9967    0.0232    1.1647 C   0  0  0  0  0  4           0  0  0
   -2.0563    0.0131   -1.1720 C   0  0  0  0  0  4           0  0  0
   -2.1612    0.0290    3.7029 C   0  0  0  0  0  4           0  0  0
   -0.6637    0.0163   -1.2212 C   0  0  0  0  0  4           0  0  0
   -2.4331    0.6740    6.0409 C   0  0  0  0  0  4           0  0  0
   -0.4733   -0.5709    5.3567 C   0  0  0  0  0  4           0  0  0
   -2.8958    0.6557    4.7233 C   0  0  0  0  0  4           0  0  0
   -0.9450   -0.5849    4.0414 C   0  0  0  0  0  4           0  0  0
    0.0493    0.0480   -2.4932 C   0  0  0  0  0  4           0  0  0
    1.9716    0.0000    1.3024 C   0  0  0  0  0  4           0  0  0
    3.4946   -0.0000    1.1835 C   0  0  2  0  0  4           0  0  0
    4.0006   -1.2388    0.4266 C   0  0  0  0  0  4           0  0  0
    4.1663    0.0915    2.5632 C   0  0  0  0  0  4           0  0  0
    5.5235   -1.2420    0.3093 C   0  0  0  0  0  4           0  0  0
    5.6893    0.0899    2.4480 C   0  0  0  0  0  4           0  0  0
    6.1948   -1.1237    1.6740 C   0  0  0  0  0  4           0  0  0
  1  2  2  0     0  0
  1  3  2  0     0  0
  1  8  1  0     0  0
  1 11  1  0     0  0
  4 12  1  0     0  0
  4 22  1  0     0  0
  5 21  2  0     0  0
  6 12  2  0     0  0
  6 13  1  0     0  0
  7 13  2  0     0  0
  7 14  1  0     0  0
  9 13  1  0     0  0
  9 15  1  0     0  0
 10 14  1  0     0  0
 11 17  2  0     0  0
 11 18  1  0     0  0
 12 16  1  0     0  0
 14 16  2  0     0  0
 15 19  2  0     0  0
 15 20  1  0     0  0
 16 21  1  0     0  0
 17 19  1  0     0  0
 18 20  2  0     0  0
 22 23  1  0     0  0
 23 24  1  0     0  0
 23 25  1  0     0  0
 24 26  1  0     0  0
 25 27  1  0     0  0
 26 28  1  0     0  0
 27 28  1  0     0  0
M  END
> <Compound >
3

> <standard_type>
pIC50

> <# Confs.>
25

> <canonical_smiles>
NC1=C(C([H])=O)C(OCC2CCCCC2)=NC(NC3=CC=C(S(=O)(N)=O)C=C3)=N1

> <standard_relation>
=

> <predicted_activity_value>
7.346787486224656

> <actual_activity_value>
7.309803919971486

> <Publication ID>
nan

> <standard_units>
nM

> hash
9676751364705744828

$$$$
2
XXILIB    08252103513D 0   0.00000     0.00000

 28 30  0     1  0            999 V2000
   -8.4675    0.0346    3.7697 S   0  0  2  0  0  6           0  0  0
   -8.5830   -0.1456    5.2037 O   0  0  0  0  0  2           0  0  0
   -9.0897    1.1647    3.1086 O   0  0  0  0  0  2           0  0  0
    1.3875    0.0000    0.0000 O   0  0  0  0  0  2           0  0  0
   -0.4388   -0.4655   -3.4907 O   0  0  0  0  0  2           0  0  0
   -0.6488   -0.0000    1.1871 N   0  0  0  0  0  3           0  0  0
   -2.7121    0.0362    0.0156 N   0  0  0  0  0  3           0  0  0
   -8.9336   -1.4043    2.9832 N   0  0  0  0  0  3           0  0  0
   -2.6608    0.0361    2.3983 N   0  0  0  0  0  3           0  0  0
   -2.8354    0.0416   -2.3260 N   0  0  0  0  0  3           0  0  0
   -6.7486    0.0693    3.3748 C   0  0  0  0  0  4           0  0  0
    0.0000    0.0000    0.0000 C   0  0  0  0  0  4           0  0  0
   -1.9967    0.0232    1.1647 C   0  0  0  0  0  4           0  0  0
   -2.0563    0.0131   -1.1720 C   0  0  0  0  0  4           0  0  0
   -4.0247    0.0600    2.6994 C   0  0  0  0  0  4           0  0  0
   -0.6637    0.0163   -1.2212 C   0  0  0  0  0  4           0  0  0
   -5.8321   -0.5446    4.2239 C   0  0  0  0  0  4           0  0  0
   -6.3294    0.6718    2.1913 C   0  0  0  0  0  4           0  0  0
   -4.4774   -0.5437    3.8845 C   0  0  0  0  0  4           0  0  0
   -4.9717    0.6687    1.8607 C   0  0  0  0  0  4           0  0  0
    0.0493    0.0480   -2.4932 C   0  0  0  0  0  4           0  0  0
    1.9716    0.0000    1.3024 C   0  0  0  0  0  4           0  0  0
    3.4946   -0.0000    1.1835 C   0  0  2  0  0  4           0  0  0
    4.0006   -1.2388    0.4266 C   0  0  0  0  0  4           0  0  0
    4.1663    0.0915    2.5632 C   0  0  0  0  0  4           0  0  0
    5.5235   -1.2420    0.3093 C   0  0  0  0  0  4           0  0  0
    5.6893    0.0899    2.4480 C   0  0  0  0  0  4           0  0  0
    6.1948   -1.1237    1.6740 C   0  0  0  0  0  4           0  0  0
  1  2  2  0     0  0
  1  3  2  0     0  0
  1  8  1  0     0  0
  1 11  1  0     0  0
  4 12  1  0     0  0
  4 22  1  0     0  0
  5 21  2  0     0  0
  6 12  2  0     0  0
  6 13  1  0     0  0
  7 13  2  0     0  0
  7 14  1  0     0  0
  9 13  1  0     0  0
  9 15  1  0     0  0
 10 14  1  0     0  0
 11 17  2  0     0  0
 11 18  1  0     0  0
 12 16  1  0     0  0
 14 16  2  0     0  0
 15 19  2  0     0  0
 15 20  1  0     0  0
 16 21  1  0     0  0
 17 19  1  0     0  0
 18 20  2  0     0  0
 22 23  1  0     0  0
 23 24  1  0     0  0
 23 25  1  0     0  0
 24 26  1  0     0  0
 25 27  1  0     0  0
 26 28  1  0     0  0
 27 28  1  0     0  0
M  END
> <Compound >
3

> <standard_type>
pIC50

> <# Confs.>
25

> <canonical_smiles>
NC1=C(C([H])=O)C(OCC2CCCCC2)=NC(NC3=CC=C(S(=O)(N)=O)C=C3)=N1

> <standard_relation>
=

> <predicted_activity_value>
7.346787486224656

> <actual_activity_value>
7.309803919971486

> <Publication ID>
nan

> <standard_units>
nM

> hash
9676751364705744828

$$$$
2
XXILIB    08252103513D 0   0.00000     0.00000

 28 30  0     1  0            999 V2000
   -8.4675    0.0346    3.7697 S   0  0  2  0  0  6           0  0  0
   -8.5830   -0.1456    5.2037 O   0  0  0  0  0  2           0  0  0
   -9.0897    1.1647    3.1086 O   0  0  0  0  0  2           0  0  0
    1.3875    0.0000    0.0000 O   0  0  0  0  0  2           0  0  0
   -0.4388   -0.4655   -3.4907 O   0  0  0  0  0  2           0  0  0
   -0.6488   -0.0000    1.1871 N   0  0  0  0  0  3           0  0  0
   -2.7121    0.0362    0.0156 N   0  0  0  0  0  3           0  0  0
   -8.9336   -1.4043    2.9832 N   0  0  0  0  0  3           0  0  0
   -2.6608    0.0361    2.3983 N   0  0  0  0  0  3           0  0  0
   -2.8354    0.0416   -2.3260 N   0  0  0  0  0  3           0  0  0
   -6.7486    0.0693    3.3748 C   0  0  0  0  0  4           0  0  0
    0.0000    0.0000    0.0000 C   0  0  0  0  0  4           0  0  0
   -1.9967    0.0232    1.1647 C   0  0  0  0  0  4           0  0  0
   -2.0563    0.0131   -1.1720 C   0  0  0  0  0  4           0  0  0
   -4.0247    0.0600    2.6994 C   0  0  0  0  0  4           0  0  0
   -0.6637    0.0163   -1.2212 C   0  0  0  0  0  4           0  0  0
   -5.8321   -0.5446    4.2239 C   0  0  0  0  0  4           0  0  0
   -6.3294    0.6718    2.1913 C   0  0  0  0  0  4           0  0  0
   -4.4774   -0.5437    3.8845 C   0  0  0  0  0  4           0  0  0
   -4.9717    0.6687    1.8607 C   0  0  0  0  0  4           0  0  0
    0.0493    0.0480   -2.4932 C   0  0  0  0  0  4           0  0  0
    1.9716    0.0000    1.3024 C   0  0  0  0  0  4           0  0  0
    3.4946   -0.0000    1.1835 C   0  0  2  0  0  4           0  0  0
    4.0006    1.2388    0.4266 C   0  0  0  0  0  4           0  0  0
    4.0058   -1.2823    0.5070 C   0  0  0  0  0  4           0  0  0
    5.5231    1.2391    0.3042 C   0  0  0  0  0  4           0  0  0
    5.5283   -1.2846    0.3850 C   0  0  0  0  0  4           0  0  0
    6.0374   -0.0436   -0.3418 C   0  0  0  0  0  4           0  0  0
  1  2  2  0     0  0
  1  3  2  0     0  0
  1  8  1  0     0  0
  1 11  1  0     0  0
  4 12  1  0     0  0
  4 22  1  0     0  0
  5 21  2  0     0  0
  6 12  2  0     0  0
  6 13  1  0     0  0
  7 13  2  0     0  0
  7 14  1  0     0  0
  9 13  1  0     0  0
  9 15  1  0     0  0
 10 14  1  0     0  0
 11 17  2  0     0  0
 11 18  1  0     0  0
 12 16  1  0     0  0
 14 16  2  0     0  0
 15 19  2  0     0  0
 15 20  1  0     0  0
 16 21  1  0     0  0
 17 19  1  0     0  0
 18 20  2  0     0  0
 22 23  1  0     0  0
 23 24  1  0     0  0
 23 25  1  0     0  0
 24 26  1  0     0  0
 25 27  1  0     0  0
 26 28  1  0     0  0
 27 28  1  0     0  0
M  END
> <Compound >
3

> <standard_type>
pIC50

> <# Confs.>
25

> <canonical_smiles>
NC1=C(C([H])=O)C(OCC2CCCCC2)=NC(NC3=CC=C(S(=O)(N)=O)C=C3)=N1

> <standard_relation>
=

> <predicted_activity_value>
7.346787486224656

> <actual_activity_value>
7.309803919971486

> <Publication ID>
nan

> <standard_units>
nM

> hash
9676751364705744828

$$$$
2
XXILIB    08252103513D 0   0.00000     0.00000

 28 30  0     1  0            999 V2000
   -8.4675    0.0346    3.7697 S   0  0  2  0  0  6           0  0  0
   -8.5830   -0.1456    5.2037 O   0  0  0  0  0  2           0  0  0
   -9.0897    1.1647    3.1086 O   0  0  0  0  0  2           0  0  0
    1.3875    0.0000    0.0000 O   0  0  0  0  0  2           0  0  0
   -0.4388   -0.4655   -3.4907 O   0  0  0  0  0  2           0  0  0
   -0.6488   -0.0000    1.1871 N   0  0  0  0  0  3           0  0  0
   -2.7121    0.0362    0.0156 N   0  0  0  0  0  3           0  0  0
   -8.9336   -1.4043    2.9832 N   0  0  0  0  0  3           0  0  0
   -2.6608    0.0361    2.3983 N   0  0  0  0  0  3           0  0  0
   -2.8354    0.0416   -2.3260 N   0  0  0  0  0  3           0  0  0
   -6.7486    0.0693    3.3748 C   0  0  0  0  0  4           0  0  0
    0.0000    0.0000    0.0000 C   0  0  0  0  0  4           0  0  0
   -1.9967    0.0232    1.1647 C   0  0  0  0  0  4           0  0  0
   -2.0563    0.0131   -1.1720 C   0  0  0  0  0  4           0  0  0
   -4.0247    0.0600    2.6994 C   0  0  0  0  0  4           0  0  0
   -0.6637    0.0163   -1.2212 C   0  0  0  0  0  4           0  0  0
   -5.8321   -0.5446    4.2239 C   0  0  0  0  0  4           0  0  0
   -6.3294    0.6718    2.1913 C   0  0  0  0  0  4           0  0  0
   -4.4774   -0.5437    3.8845 C   0  0  0  0  0  4           0  0  0
   -4.9717    0.6687    1.8607 C   0  0  0  0  0  4           0  0  0
    0.0493    0.0480   -2.4932 C   0  0  0  0  0  4           0  0  0
    1.9716    0.0000    1.3024 C   0  0  0  0  0  4           0  0  0
    3.4946   -0.0000    1.1835 C   0  0  2  0  0  4           0  0  0
    4.1676   -0.0000    2.5658 C   0  0  0  0  0  4           0  0  0
    3.9934    1.1908    0.3490 C   0  0  0  0  0  4           0  0  0
    5.6906    0.0029    2.4489 C   0  0  0  0  0  4           0  0  0
    5.5162    1.1947    0.2297 C   0  0  0  0  0  4           0  0  0
    6.1889    1.1673    1.5987 C   0  0  0  0  0  4           0  0  0
  1  2  2  0     0  0
  1  3  2  0     0  0
  1  8  1  0     0  0
  1 11  1  0     0  0
  4 12  1  0     0  0
  4 22  1  0     0  0
  5 21  2  0     0  0
  6 12  2  0     0  0
  6 13  1  0     0  0
  7 13  2  0     0  0
  7 14  1  0     0  0
  9 13  1  0     0  0
  9 15  1  0     0  0
 10 14  1  0     0  0
 11 17  2  0     0  0
 11 18  1  0     0  0
 12 16  1  0     0  0
 14 16  2  0     0  0
 15 19  2  0     0  0
 15 20  1  0     0  0
 16 21  1  0     0  0
 17 19  1  0     0  0
 18 20  2  0     0  0
 22 23  1  0     0  0
 23 24  1  0     0  0
 23 25  1  0     0  0
 24 26  1  0     0  0
 25 27  1  0     0  0
 26 28  1  0     0  0
 27 28  1  0     0  0
M  END
> <Compound >
3

> <standard_type>
pIC50

> <# Confs.>
25

> <canonical_smiles>
NC1=C(C([H])=O)C(OCC2CCCCC2)=NC(NC3=CC=C(S(=O)(N)=O)C=C3)=N1

> <standard_relation>
=

> <predicted_activity_value>
7.346787486224656

> <actual_activity_value>
7.309803919971486

> <Publication ID>
nan

> <standard_units>
nM

> hash
9676751364705744828

$$$$
2
XXILIB    08252103513D 0   0.00000     0.00000

 28 30  0     1  0            999 V2000
   -0.6524   -0.0163    8.0164 S   0  0  2  0  0  6           0  0  0
    0.2908    1.0770    8.1481 O   0  0  0  0  0  2           0  0  0
   -1.8163   -0.1034    8.8762 O   0  0  0  0  0  2           0  0  0
    1.3875    0.0000    0.0000 O   0  0  0  0  0  2           0  0  0
   -0.4388   -0.4655   -3.4907 O   0  0  0  0  0  2           0  0  0
   -0.6488    0.0000    1.1871 N   0  0  0  0  0  3           0  0  0
   -2.7121    0.0362    0.0156 N   0  0  0  0  0  3           0  0  0
    0.1926   -1.4961    8.0611 N   0  0  0  0  0  3           0  0  0
   -2.6608    0.0361    2.3983 N   0  0  0  0  0  3           0  0  0
   -2.8354    0.0416   -2.3260 N   0  0  0  0  0  3           0  0  0
   -1.2236   -0.0276    6.3474 C   0  0  0  0  0  4           0  0  0
    0.0000    0.0000    0.0000 C   0  0  0  0  0  4           0  0  0
   -1.9967    0.0232    1.1647 C   0  0  0  0  0  4           0  0  0
   -2.0563    0.0131   -1.1720 C   0  0  0  0  0  4           0  0  0
   -2.1612    0.0290    3.7029 C   0  0  0  0  0  4           0  0  0
   -0.6637    0.0163   -1.2212 C   0  0  0  0  0  4           0  0  0
   -2.4565   -0.5978    6.0430 C   0  0  0  0  0  4           0  0  0
   -0.4547    0.5765    5.3558 C   0  0  0  0  0  4           0  0  0
   -2.9170   -0.5695    4.7248 C   0  0  0  0  0  4           0  0  0
   -0.9232    0.5989    4.0395 C   0  0  0  0  0  4           0  0  0
    0.0493    0.0480   -2.4932 C   0  0  0  0  0  4           0  0  0
    1.9716    0.0000    1.3024 C   0  0  0  0  0  4           0  0  0
    3.4946   -0.0000    1.1835 C   0  0  2  0  0  4           0  0  0
    4.0006   -1.2388    0.4266 C   0  0  0  0  0  4           0  0  0
    4.1663    0.0915    2.5632 C   0  0  0  0  0  4           0  0  0
    5.5235   -1.2420    0.3093 C   0  0  0  0  0  4           0  0  0
    5.6893    0.0899    2.4480 C   0  0  0  0  0  4           0  0  0
    6.1948   -1.1237    1.6740 C   0  0  0  0  0  4           0  0  0
  1  2  2  0     0  0
  1  3  2  0     0  0
  1  8  1  0     0  0
  1 11  1  0     0  0
  4 12  1  0     0  0
  4 22  1  0     0  0
  5 21  2  0     0  0
  6 12  2  0     0  0
  6 13  1  0     0  0
  7 13  2  0     0  0
  7 14  1  0     0  0
  9 13  1  0     0  0
  9 15  1  0     0  0
 10 14  1  0     0  0
 11 17  2  0     0  0
 11 18  1  0     0  0
 12 16  1  0     0  0
 14 16  2  0     0  0
 15 19  2  0     0  0
 15 20  1  0     0  0
 16 21  1  0     0  0
 17 19  1  0     0  0
 18 20  2  0     0  0
 22 23  1  0     0  0
 23 24  1  0     0  0
 23 25  1  0     0  0
 24 26  1  0     0  0
 25 27  1  0     0  0
 26 28  1  0     0  0
 27 28  1  0     0  0
M  END
> <Compound >
3

> <standard_type>
pIC50

> <# Confs.>
25

> <canonical_smiles>
NC1=C(C([H])=O)C(OCC2CCCCC2)=NC(NC3=CC=C(S(=O)(N)=O)C=C3)=N1

> <standard_relation>
=

> <predicted_activity_value>
7.346787486224656

> <actual_activity_value>
7.309803919971486

> <Publication ID>
nan

> <standard_units>
nM

> hash
9676751364705744828

$$$$
2
XXILIB    08252103513D 0   0.00000     0.00000

 28 30  0     1  0            999 V2000
   -0.6078    0.1106    7.9999 S   0  0  2  0  0  6           0  0  0
    0.8298   -0.0659    7.9355 O   0  0  0  0  0  2           0  0  0
   -1.1872    1.2736    8.6427 O   0  0  0  0  0  2           0  0  0
    1.3875    0.0000    0.0000 O   0  0  0  0  0  2           0  0  0
   -0.4388   -0.4655   -3.4907 O   0  0  0  0  0  2           0  0  0
   -0.6488    0.0000    1.1871 N   0  0  0  0  0  3           0  0  0
   -2.7121    0.0362    0.0156 N   0  0  0  0  0  3           0  0  0
   -1.3190   -1.2998    8.6411 N   0  0  0  0  0  3           0  0  0
   -2.6608    0.0361    2.3983 N   0  0  0  0  0  3           0  0  0
   -2.8354    0.0416   -2.3260 N   0  0  0  0  0  3           0  0  0
   -1.2251    0.0544    6.3484 C   0  0  0  0  0  4           0  0  0
    0.0000    0.0000    0.0000 C   0  0  0  0  0  4           0  0  0
   -1.9967    0.0232    1.1647 C   0  0  0  0  0  4           0  0  0
   -2.0563    0.0131   -1.1720 C   0  0  0  0  0  4           0  0  0
   -2.1612    0.0290    3.7029 C   0  0  0  0  0  4           0  0  0
   -0.6637    0.0163   -1.2212 C   0  0  0  0  0  4           0  0  0
   -2.4331    0.6740    6.0409 C   0  0  0  0  0  4           0  0  0
   -0.4733   -0.5709    5.3567 C   0  0  0  0  0  4           0  0  0
   -2.8958    0.6557    4.7233 C   0  0  0  0  0  4           0  0  0
   -0.9450   -0.5849    4.0414 C   0  0  0  0  0  4           0  0  0
    0.0493    0.0480   -2.4932 C   0  0  0  0  0  4           0  0  0
    1.9716    0.0000    1.3024 C   0  0  0  0  0  4           0  0  0
    3.4946   -0.0000    1.1835 C   0  0  2  0  0  4           0  0  0
    4.1676   -0.0000    2.5658 C   0  0  0  0  0  4           0  0  0
    3.9934    1.1908    0.3490 C   0  0  0  0  0  4           0  0  0
    5.6906    0.0029    2.4489 C   0  0  0  0  0  4           0  0  0
    5.5162    1.1947    0.2297 C   0  0  0  0  0  4           0  0  0
    6.1889    1.1673    1.5987 C   0  0  0  0  0  4           0  0  0
  1  2  2  0     0  0
  1  3  2  0     0  0
  1  8  1  0     0  0
  1 11  1  0     0  0
  4 12  1  0     0  0
  4 22  1  0     0  0
  5 21  2  0     0  0
  6 12  2  0     0  0
  6 13  1  0     0  0
  7 13  2  0     0  0
  7 14  1  0     0  0
  9 13  1  0     0  0
  9 15  1  0     0  0
 10 14  1  0     0  0
 11 17  2  0     0  0
 11 18  1  0     0  0
 12 16  1  0     0  0
 14 16  2  0     0  0
 15 19  2  0     0  0
 15 20  1  0     0  0
 16 21  1  0     0  0
 17 19  1  0     0  0
 18 20  2  0     0  0
 22 23  1  0     0  0
 23 24  1  0     0  0
 23 25  1  0     0  0
 24 26  1  0     0  0
 25 27  1  0     0  0
 26 28  1  0     0  0
 27 28  1  0     0  0
M  END
> <Compound >
3

> <standard_type>
pIC50

> <# Confs.>
25

> <canonical_smiles>
NC1=C(C([H])=O)C(OCC2CCCCC2)=NC(NC3=CC=C(S(=O)(N)=O)C=C3)=N1

> <standard_relation>
=

> <predicted_activity_value>
7.346787486224656

> <actual_activity_value>
7.309803919971486

> <Publication ID>
nan

> <standard_units>
nM

> hash
9676751364705744828

$$$$
2
XXILIB    08252103513D 0   0.00000     0.00000

 28 30  0     1  0            999 V2000
   -0.6078    0.1106    7.9999 S   0  0  2  0  0  6           0  0  0
    0.8298   -0.0659    7.9355 O   0  0  0  0  0  2           0  0  0
   -1.1872    1.2736    8.6427 O   0  0  0  0  0  2           0  0  0
    1.3875    0.0000    0.0000 O   0  0  0  0  0  2           0  0  0
   -0.4388   -0.4655   -3.4907 O   0  0  0  0  0  2           0  0  0
   -0.6488    0.0000    1.1871 N   0  0  0  0  0  3           0  0  0
   -2.7121    0.0362    0.0156 N   0  0  0  0  0  3           0  0  0
   -1.3190   -1.2998    8.6411 N   0  0  0  0  0  3           0  0  0
   -2.6608    0.0361    2.3983 N   0  0  0  0  0  3           0  0  0
   -2.8354    0.0416   -2.3260 N   0  0  0  0  0  3           0  0  0
   -1.2251    0.0544    6.3484 C   0  0  0  0  0  4           0  0  0
    0.0000    0.0000    0.0000 C   0  0  0  0  0  4           0  0  0
   -1.9967    0.0232    1.1647 C   0  0  0  0  0  4           0  0  0
   -2.0563    0.0131   -1.1720 C   0  0  0  0  0  4           0  0  0
   -2.1612    0.0290    3.7029 C   0  0  0  0  0  4           0  0  0
   -0.6637    0.0163   -1.2212 C   0  0  0  0  0  4           0  0  0
   -2.4331    0.6740    6.0409 C   0  0  0  0  0  4           0  0  0
   -0.4733   -0.5709    5.3567 C   0  0  0  0  0  4           0  0  0
   -2.8958    0.6557    4.7233 C   0  0  0  0  0  4           0  0  0
   -0.9450   -0.5849    4.0414 C   0  0  0  0  0  4           0  0  0
    0.0493    0.0480   -2.4932 C   0  0  0  0  0  4           0  0  0
    1.9716    0.0000    1.3024 C   0  0  0  0  0  4           0  0  0
    3.4946   -0.0000    1.1835 C   0  0  2  0  0  4           0  0  0
    4.0006    1.2388    0.4266 C   0  0  0  0  0  4           0  0  0
    4.0058   -1.2823    0.5070 C   0  0  0  0  0  4           0  0  0
    5.5231    1.2391    0.3042 C   0  0  0  0  0  4           0  0  0
    5.5283   -1.2846    0.3850 C   0  0  0  0  0  4           0  0  0
    6.0374   -0.0436   -0.3418 C   0  0  0  0  0  4           0  0  0
  1  2  2  0     0  0
  1  3  2  0     0  0
  1  8  1  0     0  0
  1 11  1  0     0  0
  4 12  1  0     0  0
  4 22  1  0     0  0
  5 21  2  0     0  0
  6 12  2  0     0  0
  6 13  1  0     0  0
  7 13  2  0     0  0
  7 14  1  0     0  0
  9 13  1  0     0  0
  9 15  1  0     0  0
 10 14  1  0     0  0
 11 17  2  0     0  0
 11 18  1  0     0  0
 12 16  1  0     0  0
 14 16  2  0     0  0
 15 19  2  0     0  0
 15 20  1  0     0  0
 16 21  1  0     0  0
 17 19  1  0     0  0
 18 20  2  0     0  0
 22 23  1  0     0  0
 23 24  1  0     0  0
 23 25  1  0     0  0
 24 26  1  0     0  0
 25 27  1  0     0  0
 26 28  1  0     0  0
 27 28  1  0     0  0
M  END
> <Compound >
3

> <standard_type>
pIC50

> <# Confs.>
25

> <canonical_smiles>
NC1=C(C([H])=O)C(OCC2CCCCC2)=NC(NC3=CC=C(S(=O)(N)=O)C=C3)=N1

> <standard_relation>
=

> <predicted_activity_value>
7.346787486224656

> <actual_activity_value>
7.309803919971486

> <Publication ID>
nan

> <standard_units>
nM

> hash
9676751364705744828

$$$$
2
XXILIB    08252103513D 0   0.00000     0.00000

 28 30  0     1  0            999 V2000
   -8.4675    0.0346    3.7697 S   0  0  2  0  0  6           0  0  0
   -9.2038    0.1975    2.5314 O   0  0  0  0  0  2           0  0  0
   -8.6951   -1.1128    4.6260 O   0  0  0  0  0  2           0  0  0
    1.3875    0.0000    0.0000 O   0  0  0  0  0  2           0  0  0
   -0.4388   -0.4655   -3.4907 O   0  0  0  0  0  2           0  0  0
   -0.6488   -0.0000    1.1871 N   0  0  0  0  0  3           0  0  0
   -2.7121    0.0362    0.0156 N   0  0  0  0  0  3           0  0  0
   -8.5987    1.4613    4.6934 N   0  0  0  0  0  3           0  0  0
   -2.6608    0.0361    2.3983 N   0  0  0  0  0  3           0  0  0
   -2.8354    0.0416   -2.3260 N   0  0  0  0  0  3           0  0  0
   -6.7486    0.0693    3.3748 C   0  0  0  0  0  4           0  0  0
    0.0000    0.0000    0.0000 C   0  0  0  0  0  4           0  0  0
   -1.9967    0.0232    1.1647 C   0  0  0  0  0  4           0  0  0
   -2.0563    0.0131   -1.1720 C   0  0  0  0  0  4           0  0  0
   -4.0247    0.0600    2.6994 C   0  0  0  0  0  4           0  0  0
   -0.6637    0.0163   -1.2212 C   0  0  0  0  0  4           0  0  0
   -5.8321   -0.5446    4.2239 C   0  0  0  0  0  4           0  0  0
   -6.3294    0.6718    2.1913 C   0  0  0  0  0  4           0  0  0
   -4.4774   -0.5437    3.8845 C   0  0  0  0  0  4           0  0  0
   -4.9717    0.6687    1.8607 C   0  0  0  0  0  4           0  0  0
    0.0493    0.0480   -2.4932 C   0  0  0  0  0  4           0  0  0
    1.9716    0.0000    1.3024 C   0  0  0  0  0  4           0  0  0
    3.4946   -0.0000    1.1835 C   0  0  2  0  0  4           0  0  0
    4.0006   -1.2388    0.4266 C   0  0  0  0  0  4           0  0  0
    4.1663    0.0915    2.5632 C   0  0  0  0  0  4           0  0  0
    5.5235   -1.2420    0.3093 C   0  0  0  0  0  4           0  0  0
    5.6893    0.0899    2.4480 C   0  0  0  0  0  4           0  0  0
    6.1948   -1.1237    1.6740 C   0  0  0  0  0  4           0  0  0
  1  2  2  0     0  0
  1  3  2  0     0  0
  1  8  1  0     0  0
  1 11  1  0     0  0
  4 12  1  0     0  0
  4 22  1  0     0  0
  5 21  2  0     0  0
  6 12  2  0     0  0
  6 13  1  0     0  0
  7 13  2  0     0  0
  7 14  1  0     0  0
  9 13  1  0     0  0
  9 15  1  0     0  0
 10 14  1  0     0  0
 11 17  2  0     0  0
 11 18  1  0     0  0
 12 16  1  0     0  0
 14 16  2  0     0  0
 15 19  2  0     0  0
 15 20  1  0     0  0
 16 21  1  0     0  0
 17 19  1  0     0  0
 18 20  2  0     0  0
 22 23  1  0     0  0
 23 24  1  0     0  0
 23 25  1  0     0  0
 24 26  1  0     0  0
 25 27  1  0     0  0
 26 28  1  0     0  0
 27 28  1  0     0  0
M  END
> <Compound >
3

> <standard_type>
pIC50

> <# Confs.>
25

> <canonical_smiles>
NC1=C(C([H])=O)C(OCC2CCCCC2)=NC(NC3=CC=C(S(=O)(N)=O)C=C3)=N1

> <standard_relation>
=

> <predicted_activity_value>
7.346787486224656

> <actual_activity_value>
7.309803919971486

> <Publication ID>
nan

> <standard_units>
nM

> hash
9676751364705744828

$$$$
2
XXILIB    08252103513D 0   0.00000     0.00000

 28 30  0     1  0            999 V2000
   -0.6524   -0.0163    8.0164 S   0  0  2  0  0  6           0  0  0
    0.2908    1.0770    8.1481 O   0  0  0  0  0  2           0  0  0
   -1.8163   -0.1034    8.8762 O   0  0  0  0  0  2           0  0  0
    1.3875    0.0000    0.0000 O   0  0  0  0  0  2           0  0  0
   -0.4388   -0.4655   -3.4907 O   0  0  0  0  0  2           0  0  0
   -0.6488    0.0000    1.1871 N   0  0  0  0  0  3           0  0  0
   -2.7121    0.0362    0.0156 N   0  0  0  0  0  3           0  0  0
    0.1926   -1.4961    8.0611 N   0  0  0  0  0  3           0  0  0
   -2.6608    0.0361    2.3983 N   0  0  0  0  0  3           0  0  0
   -2.8354    0.0416   -2.3260 N   0  0  0  0  0  3           0  0  0
   -1.2236   -0.0276    6.3474 C   0  0  0  0  0  4           0  0  0
    0.0000    0.0000    0.0000 C   0  0  0  0  0  4           0  0  0
   -1.9967    0.0232    1.1647 C   0  0  0  0  0  4           0  0  0
   -2.0563    0.0131   -1.1720 C   0  0  0  0  0  4           0  0  0
   -2.1612    0.0290    3.7029 C   0  0  0  0  0  4           0  0  0
   -0.6637    0.0163   -1.2212 C   0  0  0  0  0  4           0  0  0
   -2.4565   -0.5978    6.0430 C   0  0  0  0  0  4           0  0  0
   -0.4547    0.5765    5.3558 C   0  0  0  0  0  4           0  0  0
   -2.9170   -0.5695    4.7248 C   0  0  0  0  0  4           0  0  0
   -0.9232    0.5989    4.0395 C   0  0  0  0  0  4           0  0  0
    0.0493    0.0480   -2.4932 C   0  0  0  0  0  4           0  0  0
    1.9716    0.0000    1.3024 C   0  0  0  0  0  4           0  0  0
    3.4946   -0.0000    1.1835 C   0  0  2  0  0  4           0  0  0
    4.1676   -0.0000    2.5658 C   0  0  0  0  0  4           0  0  0
    3.9934    1.1908    0.3490 C   0  0  0  0  0  4           0  0  0
    5.6906    0.0029    2.4489 C   0  0  0  0  0  4           0  0  0
    5.5162    1.1947    0.2297 C   0  0  0  0  0  4           0  0  0
    6.1889    1.1673    1.5987 C   0  0  0  0  0  4           0  0  0
  1  2  2  0     0  0
  1  3  2  0     0  0
  1  8  1  0     0  0
  1 11  1  0     0  0
  4 12  1  0     0  0
  4 22  1  0     0  0
  5 21  2  0     0  0
  6 12  2  0     0  0
  6 13  1  0     0  0
  7 13  2  0     0  0
  7 14  1  0     0  0
  9 13  1  0     0  0
  9 15  1  0     0  0
 10 14  1  0     0  0
 11 17  2  0     0  0
 11 18  1  0     0  0
 12 16  1  0     0  0
 14 16  2  0     0  0
 15 19  2  0     0  0
 15 20  1  0     0  0
 16 21  1  0     0  0
 17 19  1  0     0  0
 18 20  2  0     0  0
 22 23  1  0     0  0
 23 24  1  0     0  0
 23 25  1  0     0  0
 24 26  1  0     0  0
 25 27  1  0     0  0
 26 28  1  0     0  0
 27 28  1  0     0  0
M  END
> <Compound >
3

> <standard_type>
pIC50

> <# Confs.>
25

> <canonical_smiles>
NC1=C(C([H])=O)C(OCC2CCCCC2)=NC(NC3=CC=C(S(=O)(N)=O)C=C3)=N1

> <standard_relation>
=

> <predicted_activity_value>
7.346787486224656

> <actual_activity_value>
7.309803919971486

> <Publication ID>
nan

> <standard_units>
nM

> hash
9676751364705744828

$$$$
2
XXILIB    08252103513D 0   0.00000     0.00000

 28 30  0     1  0            999 V2000
   -0.6524   -0.0163    8.0164 S   0  0  2  0  0  6           0  0  0
   -1.3125   -1.1038    8.7117 O   0  0  0  0  0  2           0  0  0
    0.7939    0.0765    7.9816 O   0  0  0  0  0  2           0  0  0
    1.3875    0.0000    0.0000 O   0  0  0  0  0  2           0  0  0
   -0.4388   -0.4655   -3.4907 O   0  0  0  0  0  2           0  0  0
   -0.6488    0.0000    1.1871 N   0  0  0  0  0  3           0  0  0
   -2.7121    0.0362    0.0156 N   0  0  0  0  0  3           0  0  0
   -1.2990    1.4676    8.5515 N   0  0  0  0  0  3           0  0  0
   -2.6608    0.0361    2.3983 N   0  0  0  0  0  3           0  0  0
   -2.8354    0.0416   -2.3260 N   0  0  0  0  0  3           0  0  0
   -1.2236   -0.0276    6.3474 C   0  0  0  0  0  4           0  0  0
    0.0000    0.0000    0.0000 C   0  0  0  0  0  4           0  0  0
   -1.9967    0.0232    1.1647 C   0  0  0  0  0  4           0  0  0
   -2.0563    0.0131   -1.1720 C   0  0  0  0  0  4           0  0  0
   -2.1612    0.0290    3.7029 C   0  0  0  0  0  4           0  0  0
   -0.6637    0.0163   -1.2212 C   0  0  0  0  0  4           0  0  0
   -2.4565   -0.5978    6.0430 C   0  0  0  0  0  4           0  0  0
   -0.4547    0.5765    5.3558 C   0  0  0  0  0  4           0  0  0
   -2.9170   -0.5695    4.7248 C   0  0  0  0  0  4           0  0  0
   -0.9232    0.5989    4.0395 C   0  0  0  0  0  4           0  0  0
    0.0493    0.0480   -2.4932 C   0  0  0  0  0  4           0  0  0
    1.9716    0.0000    1.3024 C   0  0  0  0  0  4           0  0  0
    3.4946   -0.0000    1.1835 C   0  0  2  0  0  4           0  0  0
    4.0006   -1.2388    0.4266 C   0  0  0  0  0  4           0  0  0
    4.1663    0.0915    2.5632 C   0  0  0  0  0  4           0  0  0
    5.5235   -1.2420    0.3093 C   0  0  0  0  0  4           0  0  0
    5.6893    0.0899    2.4480 C   0  0  0  0  0  4           0  0  0
    6.1948   -1.1237    1.6740 C   0  0  0  0  0  4           0  0  0
  1  2  2  0     0  0
  1  3  2  0     0  0
  1  8  1  0     0  0
  1 11  1  0     0  0
  4 12  1  0     0  0
  4 22  1  0     0  0
  5 21  2  0     0  0
  6 12  2  0     0  0
  6 13  1  0     0  0
  7 13  2  0     0  0
  7 14  1  0     0  0
  9 13  1  0     0  0
  9 15  1  0     0  0
 10 14  1  0     0  0
 11 17  2  0     0  0
 11 18  1  0     0  0
 12 16  1  0     0  0
 14 16  2  0     0  0
 15 19  2  0     0  0
 15 20  1  0     0  0
 16 21  1  0     0  0
 17 19  1  0     0  0
 18 20  2  0     0  0
 22 23  1  0     0  0
 23 24  1  0     0  0
 23 25  1  0     0  0
 24 26  1  0     0  0
 25 27  1  0     0  0
 26 28  1  0     0  0
 27 28  1  0     0  0
M  END
> <Compound >
3

> <standard_type>
pIC50

> <# Confs.>
25

> <canonical_smiles>
NC1=C(C([H])=O)C(OCC2CCCCC2)=NC(NC3=CC=C(S(=O)(N)=O)C=C3)=N1

> <standard_relation>
=

> <predicted_activity_value>
7.346787486224656

> <actual_activity_value>
7.309803919971486

> <Publication ID>
nan

> <standard_units>
nM

> hash
9676751364705744828

$$$$
2
XXILIB    08252103513D 0   0.00000     0.00000

 28 30  0     1  0            999 V2000
   -8.4675    0.0346    3.7697 S   0  0  2  0  0  6           0  0  0
   -9.2038    0.1975    2.5314 O   0  0  0  0  0  2           0  0  0
   -8.6951   -1.1128    4.6260 O   0  0  0  0  0  2           0  0  0
    1.3875    0.0000    0.0000 O   0  0  0  0  0  2           0  0  0
   -0.4388   -0.4655   -3.4907 O   0  0  0  0  0  2           0  0  0
   -0.6488   -0.0000    1.1871 N   0  0  0  0  0  3           0  0  0
   -2.7121    0.0362    0.0156 N   0  0  0  0  0  3           0  0  0
   -8.5987    1.4613    4.6934 N   0  0  0  0  0  3           0  0  0
   -2.6608    0.0361    2.3983 N   0  0  0  0  0  3           0  0  0
   -2.8354    0.0416   -2.3260 N   0  0  0  0  0  3           0  0  0
   -6.7486    0.0693    3.3748 C   0  0  0  0  0  4           0  0  0
    0.0000    0.0000    0.0000 C   0  0  0  0  0  4           0  0  0
   -1.9967    0.0232    1.1647 C   0  0  0  0  0  4           0  0  0
   -2.0563    0.0131   -1.1720 C   0  0  0  0  0  4           0  0  0
   -4.0247    0.0600    2.6994 C   0  0  0  0  0  4           0  0  0
   -0.6637    0.0163   -1.2212 C   0  0  0  0  0  4           0  0  0
   -5.8321   -0.5446    4.2239 C   0  0  0  0  0  4           0  0  0
   -6.3294    0.6718    2.1913 C   0  0  0  0  0  4           0  0  0
   -4.4774   -0.5437    3.8845 C   0  0  0  0  0  4           0  0  0
   -4.9717    0.6687    1.8607 C   0  0  0  0  0  4           0  0  0
    0.0493    0.0480   -2.4932 C   0  0  0  0  0  4           0  0  0
    1.9716    0.0000    1.3024 C   0  0  0  0  0  4           0  0  0
    3.4946   -0.0000    1.1835 C   0  0  2  0  0  4           0  0  0
    4.0006    1.2388    0.4266 C   0  0  0  0  0  4           0  0  0
    4.0058   -1.2823    0.5070 C   0  0  0  0  0  4           0  0  0
    5.5231    1.2391    0.3042 C   0  0  0  0  0  4           0  0  0
    5.5283   -1.2846    0.3850 C   0  0  0  0  0  4           0  0  0
    6.0374   -0.0436   -0.3418 C   0  0  0  0  0  4           0  0  0
  1  2  2  0     0  0
  1  3  2  0     0  0
  1  8  1  0     0  0
  1 11  1  0     0  0
  4 12  1  0     0  0
  4 22  1  0     0  0
  5 21  2  0     0  0
  6 12  2  0     0  0
  6 13  1  0     0  0
  7 13  2  0     0  0
  7 14  1  0     0  0
  9 13  1  0     0  0
  9 15  1  0     0  0
 10 14  1  0     0  0
 11 17  2  0     0  0
 11 18  1  0     0  0
 12 16  1  0     0  0
 14 16  2  0     0  0
 15 19  2  0     0  0
 15 20  1  0     0  0
 16 21  1  0     0  0
 17 19  1  0     0  0
 18 20  2  0     0  0
 22 23  1  0     0  0
 23 24  1  0     0  0
 23 25  1  0     0  0
 24 26  1  0     0  0
 25 27  1  0     0  0
 26 28  1  0     0  0
 27 28  1  0     0  0
M  END
> <Compound >
3

> <standard_type>
pIC50

> <# Confs.>
25

> <canonical_smiles>
NC1=C(C([H])=O)C(OCC2CCCCC2)=NC(NC3=CC=C(S(=O)(N)=O)C=C3)=N1

> <standard_relation>
=

> <predicted_activity_value>
7.346787486224656

> <actual_activity_value>
7.309803919971486

> <Publication ID>
nan

> <standard_units>
nM

> hash
9676751364705744828

$$$$
2
XXILIB    08252103513D 0   0.00000     0.00000

 28 30  0     1  0            999 V2000
   -0.6078    0.1106    7.9999 S   0  0  2  0  0  6           0  0  0
   -1.7395    0.3150    8.8829 O   0  0  0  0  0  2           0  0  0
    0.2768   -1.0247    8.1737 O   0  0  0  0  0  2           0  0  0
    1.3875    0.0000    0.0000 O   0  0  0  0  0  2           0  0  0
   -0.4388   -0.4655   -3.4907 O   0  0  0  0  0  2           0  0  0
   -0.6488    0.0000    1.1871 N   0  0  0  0  0  3           0  0  0
   -2.7121    0.0362    0.0156 N   0  0  0  0  0  3           0  0  0
    0.3180    1.5405    7.9326 N   0  0  0  0  0  3           0  0  0
   -2.6608    0.0361    2.3983 N   0  0  0  0  0  3           0  0  0
   -2.8354    0.0416   -2.3260 N   0  0  0  0  0  3           0  0  0
   -1.2251    0.0544    6.3484 C   0  0  0  0  0  4           0  0  0
    0.0000    0.0000    0.0000 C   0  0  0  0  0  4           0  0  0
   -1.9967    0.0232    1.1647 C   0  0  0  0  0  4           0  0  0
   -2.0563    0.0131   -1.1720 C   0  0  0  0  0  4           0  0  0
   -2.1612    0.0290    3.7029 C   0  0  0  0  0  4           0  0  0
   -0.6637    0.0163   -1.2212 C   0  0  0  0  0  4           0  0  0
   -2.4331    0.6740    6.0409 C   0  0  0  0  0  4           0  0  0
   -0.4733   -0.5709    5.3567 C   0  0  0  0  0  4           0  0  0
   -2.8958    0.6557    4.7233 C   0  0  0  0  0  4           0  0  0
   -0.9450   -0.5849    4.0414 C   0  0  0  0  0  4           0  0  0
    0.0493    0.0480   -2.4932 C   0  0  0  0  0  4           0  0  0
    1.9716    0.0000    1.3024 C   0  0  0  0  0  4           0  0  0
    3.4946   -0.0000    1.1835 C   0  0  2  0  0  4           0  0  0
    4.0006   -1.2388    0.4266 C   0  0  0  0  0  4           0  0  0
    4.1663    0.0915    2.5632 C   0  0  0  0  0  4           0  0  0
    5.5235   -1.2420    0.3093 C   0  0  0  0  0  4           0  0  0
    5.6893    0.0899    2.4480 C   0  0  0  0  0  4           0  0  0
    6.1948   -1.1237    1.6740 C   0  0  0  0  0  4           0  0  0
  1  2  2  0     0  0
  1  3  2  0     0  0
  1  8  1  0     0  0
  1 11  1  0     0  0
  4 12  1  0     0  0
  4 22  1  0     0  0
  5 21  2  0     0  0
  6 12  2  0     0  0
  6 13  1  0     0  0
  7 13  2  0     0  0
  7 14  1  0     0  0
  9 13  1  0     0  0
  9 15  1  0     0  0
 10 14  1  0     0  0
 11 17  2  0     0  0
 11 18  1  0     0  0
 12 16  1  0     0  0
 14 16  2  0     0  0
 15 19  2  0     0  0
 15 20  1  0     0  0
 16 21  1  0     0  0
 17 19  1  0     0  0
 18 20  2  0     0  0
 22 23  1  0     0  0
 23 24  1  0     0  0
 23 25  1  0     0  0
 24 26  1  0     0  0
 25 27  1  0     0  0
 26 28  1  0     0  0
 27 28  1  0     0  0
M  END
> <Compound >
3

> <standard_type>
pIC50

> <# Confs.>
25

> <canonical_smiles>
NC1=C(C([H])=O)C(OCC2CCCCC2)=NC(NC3=CC=C(S(=O)(N)=O)C=C3)=N1

> <standard_relation>
=

> <predicted_activity_value>
7.346787486224656

> <actual_activity_value>
7.309803919971486

> <Publication ID>
nan

> <standard_units>
nM

> hash
9676751364705744828

$$$$
2
XXILIB    08252103513D 0   0.00000     0.00000

 28 30  0     1  0            999 V2000
   -8.4555    0.1621    3.8139 S   0  0  2  0  0  6           0  0  0
   -8.6629    1.2665    4.7301 O   0  0  0  0  0  2           0  0  0
   -9.2238    0.0561    2.5891 O   0  0  0  0  0  2           0  0  0
    1.3875    0.0000    0.0000 O   0  0  0  0  0  2           0  0  0
   -0.4388   -0.4655   -3.4907 O   0  0  0  0  0  2           0  0  0
   -0.6488   -0.0000    1.1871 N   0  0  0  0  0  3           0  0  0
   -2.7121    0.0362    0.0156 N   0  0  0  0  0  3           0  0  0
   -8.5591   -1.3072    4.6723 N   0  0  0  0  0  3           0  0  0
   -2.6608    0.0361    2.3983 N   0  0  0  0  0  3           0  0  0
   -2.8354    0.0416   -2.3260 N   0  0  0  0  0  3           0  0  0
   -6.7478    0.1513    3.3717 C   0  0  0  0  0  4           0  0  0
    0.0000    0.0000    0.0000 C   0  0  0  0  0  4           0  0  0
   -1.9967    0.0232    1.1647 C   0  0  0  0  0  4           0  0  0
   -2.0563    0.0131   -1.1720 C   0  0  0  0  0  4           0  0  0
   -4.0247    0.0600    2.6994 C   0  0  0  0  0  4           0  0  0
   -0.6637    0.0163   -1.2212 C   0  0  0  0  0  4           0  0  0
   -5.8099    0.7272    4.2240 C   0  0  0  0  0  4           0  0  0
   -6.3489   -0.4755    2.1938 C   0  0  0  0  0  4           0  0  0
   -4.4563    0.6816    3.8831 C   0  0  0  0  0  4           0  0  0
   -4.9924   -0.5151    1.8606 C   0  0  0  0  0  4           0  0  0
    0.0493    0.0480   -2.4932 C   0  0  0  0  0  4           0  0  0
    1.9716    0.0000    1.3024 C   0  0  0  0  0  4           0  0  0
    3.4946   -0.0000    1.1835 C   0  0  2  0  0  4           0  0  0
    4.0006   -1.2388    0.4266 C   0  0  0  0  0  4           0  0  0
    4.1663    0.0915    2.5632 C   0  0  0  0  0  4           0  0  0
    5.5235   -1.2420    0.3093 C   0  0  0  0  0  4           0  0  0
    5.6893    0.0899    2.4480 C   0  0  0  0  0  4           0  0  0
    6.1948   -1.1237    1.6740 C   0  0  0  0  0  4           0  0  0
  1  2  2  0     0  0
  1  3  2  0     0  0
  1  8  1  0     0  0
  1 11  1  0     0  0
  4 12  1  0     0  0
  4 22  1  0     0  0
  5 21  2  0     0  0
  6 12  2  0     0  0
  6 13  1  0     0  0
  7 13  2  0     0  0
  7 14  1  0     0  0
  9 13  1  0     0  0
  9 15  1  0     0  0
 10 14  1  0     0  0
 11 17  2  0     0  0
 11 18  1  0     0  0
 12 16  1  0     0  0
 14 16  2  0     0  0
 15 19  2  0     0  0
 15 20  1  0     0  0
 16 21  1  0     0  0
 17 19  1  0     0  0
 18 20  2  0     0  0
 22 23  1  0     0  0
 23 24  1  0     0  0
 23 25  1  0     0  0
 24 26  1  0     0  0
 25 27  1  0     0  0
 26 28  1  0     0  0
 27 28  1  0     0  0
M  END
> <Compound >
3

> <standard_type>
pIC50

> <# Confs.>
25

> <canonical_smiles>
NC1=C(C([H])=O)C(OCC2CCCCC2)=NC(NC3=CC=C(S(=O)(N)=O)C=C3)=N1

> <standard_relation>
=

> <predicted_activity_value>
7.346787486224656

> <actual_activity_value>
7.309803919971486

> <Publication ID>
nan

> <standard_units>
nM

> hash
9676751364705744828

$$$$
2
XXILIB    08252103513D 0   0.00000     0.00000

 28 30  0     1  0            999 V2000
   -0.6524   -0.0163    8.0164 S   0  0  2  0  0  6           0  0  0
    0.2908    1.0770    8.1481 O   0  0  0  0  0  2           0  0  0
   -1.8163   -0.1034    8.8762 O   0  0  0  0  0  2           0  0  0
    1.3875    0.0000    0.0000 O   0  0  0  0  0  2           0  0  0
   -0.4388   -0.4655   -3.4907 O   0  0  0  0  0  2           0  0  0
   -0.6488    0.0000    1.1871 N   0  0  0  0  0  3           0  0  0
   -2.7121    0.0362    0.0156 N   0  0  0  0  0  3           0  0  0
    0.1926   -1.4961    8.0611 N   0  0  0  0  0  3           0  0  0
   -2.6608    0.0361    2.3983 N   0  0  0  0  0  3           0  0  0
   -2.8354    0.0416   -2.3260 N   0  0  0  0  0  3           0  0  0
   -1.2236   -0.0276    6.3474 C   0  0  0  0  0  4           0  0  0
    0.0000    0.0000    0.0000 C   0  0  0  0  0  4           0  0  0
   -1.9967    0.0232    1.1647 C   0  0  0  0  0  4           0  0  0
   -2.0563    0.0131   -1.1720 C   0  0  0  0  0  4           0  0  0
   -2.1612    0.0290    3.7029 C   0  0  0  0  0  4           0  0  0
   -0.6637    0.0163   -1.2212 C   0  0  0  0  0  4           0  0  0
   -2.4565   -0.5978    6.0430 C   0  0  0  0  0  4           0  0  0
   -0.4547    0.5765    5.3558 C   0  0  0  0  0  4           0  0  0
   -2.9170   -0.5695    4.7248 C   0  0  0  0  0  4           0  0  0
   -0.9232    0.5989    4.0395 C   0  0  0  0  0  4           0  0  0
    0.0493    0.0480   -2.4932 C   0  0  0  0  0  4           0  0  0
    1.9716    0.0000    1.3024 C   0  0  0  0  0  4           0  0  0
    3.4946   -0.0000    1.1835 C   0  0  2  0  0  4           0  0  0
    4.0006    1.2388    0.4266 C   0  0  0  0  0  4           0  0  0
    4.0058   -1.2823    0.5070 C   0  0  0  0  0  4           0  0  0
    5.5231    1.2391    0.3042 C   0  0  0  0  0  4           0  0  0
    5.5283   -1.2846    0.3850 C   0  0  0  0  0  4           0  0  0
    6.0374   -0.0436   -0.3418 C   0  0  0  0  0  4           0  0  0
  1  2  2  0     0  0
  1  3  2  0     0  0
  1  8  1  0     0  0
  1 11  1  0     0  0
  4 12  1  0     0  0
  4 22  1  0     0  0
  5 21  2  0     0  0
  6 12  2  0     0  0
  6 13  1  0     0  0
  7 13  2  0     0  0
  7 14  1  0     0  0
  9 13  1  0     0  0
  9 15  1  0     0  0
 10 14  1  0     0  0
 11 17  2  0     0  0
 11 18  1  0     0  0
 12 16  1  0     0  0
 14 16  2  0     0  0
 15 19  2  0     0  0
 15 20  1  0     0  0
 16 21  1  0     0  0
 17 19  1  0     0  0
 18 20  2  0     0  0
 22 23  1  0     0  0
 23 24  1  0     0  0
 23 25  1  0     0  0
 24 26  1  0     0  0
 25 27  1  0     0  0
 26 28  1  0     0  0
 27 28  1  0     0  0
M  END
> <Compound >
3

> <standard_type>
pIC50

> <# Confs.>
25

> <canonical_smiles>
NC1=C(C([H])=O)C(OCC2CCCCC2)=NC(NC3=CC=C(S(=O)(N)=O)C=C3)=N1

> <standard_relation>
=

> <predicted_activity_value>
7.346787486224656

> <actual_activity_value>
7.309803919971486

> <Publication ID>
nan

> <standard_units>
nM

> hash
9676751364705744828

$$$$
2
XXILIB    08252103513D 0   0.00000     0.00000

 28 30  0     1  0            999 V2000
   -8.4555    0.1621    3.8139 S   0  0  2  0  0  6           0  0  0
   -8.6629    1.2665    4.7301 O   0  0  0  0  0  2           0  0  0
   -9.2238    0.0561    2.5891 O   0  0  0  0  0  2           0  0  0
    1.3875    0.0000    0.0000 O   0  0  0  0  0  2           0  0  0
   -0.4388   -0.4655   -3.4907 O   0  0  0  0  0  2           0  0  0
   -0.6488   -0.0000    1.1871 N   0  0  0  0  0  3           0  0  0
   -2.7121    0.0362    0.0156 N   0  0  0  0  0  3           0  0  0
   -8.5591   -1.3072    4.6723 N   0  0  0  0  0  3           0  0  0
   -2.6608    0.0361    2.3983 N   0  0  0  0  0  3           0  0  0
   -2.8354    0.0416   -2.3260 N   0  0  0  0  0  3           0  0  0
   -6.7478    0.1513    3.3717 C   0  0  0  0  0  4           0  0  0
    0.0000    0.0000    0.0000 C   0  0  0  0  0  4           0  0  0
   -1.9967    0.0232    1.1647 C   0  0  0  0  0  4           0  0  0
   -2.0563    0.0131   -1.1720 C   0  0  0  0  0  4           0  0  0
   -4.0247    0.0600    2.6994 C   0  0  0  0  0  4           0  0  0
   -0.6637    0.0163   -1.2212 C   0  0  0  0  0  4           0  0  0
   -5.8099    0.7272    4.2240 C   0  0  0  0  0  4           0  0  0
   -6.3489   -0.4755    2.1938 C   0  0  0  0  0  4           0  0  0
   -4.4563    0.6816    3.8831 C   0  0  0  0  0  4           0  0  0
   -4.9924   -0.5151    1.8606 C   0  0  0  0  0  4           0  0  0
    0.0493    0.0480   -2.4932 C   0  0  0  0  0  4           0  0  0
    1.9716    0.0000    1.3024 C   0  0  0  0  0  4           0  0  0
    3.4946   -0.0000    1.1835 C   0  0  2  0  0  4           0  0  0
    4.0006    1.2388    0.4266 C   0  0  0  0  0  4           0  0  0
    4.0058   -1.2823    0.5070 C   0  0  0  0  0  4           0  0  0
    5.5231    1.2391    0.3042 C   0  0  0  0  0  4           0  0  0
    5.5283   -1.2846    0.3850 C   0  0  0  0  0  4           0  0  0
    6.0374   -0.0436   -0.3418 C   0  0  0  0  0  4           0  0  0
  1  2  2  0     0  0
  1  3  2  0     0  0
  1  8  1  0     0  0
  1 11  1  0     0  0
  4 12  1  0     0  0
  4 22  1  0     0  0
  5 21  2  0     0  0
  6 12  2  0     0  0
  6 13  1  0     0  0
  7 13  2  0     0  0
  7 14  1  0     0  0
  9 13  1  0     0  0
  9 15  1  0     0  0
 10 14  1  0     0  0
 11 17  2  0     0  0
 11 18  1  0     0  0
 12 16  1  0     0  0
 14 16  2  0     0  0
 15 19  2  0     0  0
 15 20  1  0     0  0
 16 21  1  0     0  0
 17 19  1  0     0  0
 18 20  2  0     0  0
 22 23  1  0     0  0
 23 24  1  0     0  0
 23 25  1  0     0  0
 24 26  1  0     0  0
 25 27  1  0     0  0
 26 28  1  0     0  0
 27 28  1  0     0  0
M  END
> <Compound >
3

> <standard_type>
pIC50

> <# Confs.>
25

> <canonical_smiles>
NC1=C(C([H])=O)C(OCC2CCCCC2)=NC(NC3=CC=C(S(=O)(N)=O)C=C3)=N1

> <standard_relation>
=

> <predicted_activity_value>
7.346787486224656

> <actual_activity_value>
7.309803919971486

> <Publication ID>
nan

> <standard_units>
nM

> hash
9676751364705744828

$$$$
2
XXILIB    08252103513D 0   0.00000     0.00000

 28 30  0     1  0            999 V2000
   -8.4675    0.0346    3.7697 S   0  0  2  0  0  6           0  0  0
   -9.2038    0.1975    2.5314 O   0  0  0  0  0  2           0  0  0
   -8.6951   -1.1128    4.6260 O   0  0  0  0  0  2           0  0  0
    1.3875    0.0000    0.0000 O   0  0  0  0  0  2           0  0  0
   -0.4388   -0.4655   -3.4907 O   0  0  0  0  0  2           0  0  0
   -0.6488   -0.0000    1.1871 N   0  0  0  0  0  3           0  0  0
   -2.7121    0.0362    0.0156 N   0  0  0  0  0  3           0  0  0
   -8.5987    1.4613    4.6934 N   0  0  0  0  0  3           0  0  0
   -2.6608    0.0361    2.3983 N   0  0  0  0  0  3           0  0  0
   -2.8354    0.0416   -2.3260 N   0  0  0  0  0  3           0  0  0
   -6.7486    0.0693    3.3748 C   0  0  0  0  0  4           0  0  0
    0.0000    0.0000    0.0000 C   0  0  0  0  0  4           0  0  0
   -1.9967    0.0232    1.1647 C   0  0  0  0  0  4           0  0  0
   -2.0563    0.0131   -1.1720 C   0  0  0  0  0  4           0  0  0
   -4.0247    0.0600    2.6994 C   0  0  0  0  0  4           0  0  0
   -0.6637    0.0163   -1.2212 C   0  0  0  0  0  4           0  0  0
   -5.8321   -0.5446    4.2239 C   0  0  0  0  0  4           0  0  0
   -6.3294    0.6718    2.1913 C   0  0  0  0  0  4           0  0  0
   -4.4774   -0.5437    3.8845 C   0  0  0  0  0  4           0  0  0
   -4.9717    0.6687    1.8607 C   0  0  0  0  0  4           0  0  0
    0.0493    0.0480   -2.4932 C   0  0  0  0  0  4           0  0  0
    1.9716    0.0000    1.3024 C   0  0  0  0  0  4           0  0  0
    3.4946   -0.0000    1.1835 C   0  0  2  0  0  4           0  0  0
    4.1676   -0.0000    2.5658 C   0  0  0  0  0  4           0  0  0
    3.9934    1.1908    0.3490 C   0  0  0  0  0  4           0  0  0
    5.6906    0.0029    2.4489 C   0  0  0  0  0  4           0  0  0
    5.5162    1.1947    0.2297 C   0  0  0  0  0  4           0  0  0
    6.1889    1.1673    1.5987 C   0  0  0  0  0  4           0  0  0
  1  2  2  0     0  0
  1  3  2  0     0  0
  1  8  1  0     0  0
  1 11  1  0     0  0
  4 12  1  0     0  0
  4 22  1  0     0  0
  5 21  2  0     0  0
  6 12  2  0     0  0
  6 13  1  0     0  0
  7 13  2  0     0  0
  7 14  1  0     0  0
  9 13  1  0     0  0
  9 15  1  0     0  0
 10 14  1  0     0  0
 11 17  2  0     0  0
 11 18  1  0     0  0
 12 16  1  0     0  0
 14 16  2  0     0  0
 15 19  2  0     0  0
 15 20  1  0     0  0
 16 21  1  0     0  0
 17 19  1  0     0  0
 18 20  2  0     0  0
 22 23  1  0     0  0
 23 24  1  0     0  0
 23 25  1  0     0  0
 24 26  1  0     0  0
 25 27  1  0     0  0
 26 28  1  0     0  0
 27 28  1  0     0  0
M  END
> <Compound >
3

> <standard_type>
pIC50

> <# Confs.>
25

> <canonical_smiles>
NC1=C(C([H])=O)C(OCC2CCCCC2)=NC(NC3=CC=C(S(=O)(N)=O)C=C3)=N1

> <standard_relation>
=

> <predicted_activity_value>
7.346787486224656

> <actual_activity_value>
7.309803919971486

> <Publication ID>
nan

> <standard_units>
nM

> hash
9676751364705744828

$$$$
2
XXILIB    08252103513D 0   0.00000     0.00000

 28 30  0     1  0            999 V2000
   -0.6524   -0.0163    8.0164 S   0  0  2  0  0  6           0  0  0
   -1.3125   -1.1038    8.7117 O   0  0  0  0  0  2           0  0  0
    0.7939    0.0765    7.9816 O   0  0  0  0  0  2           0  0  0
    1.3875    0.0000    0.0000 O   0  0  0  0  0  2           0  0  0
   -0.4388   -0.4655   -3.4907 O   0  0  0  0  0  2           0  0  0
   -0.6488    0.0000    1.1871 N   0  0  0  0  0  3           0  0  0
   -2.7121    0.0362    0.0156 N   0  0  0  0  0  3           0  0  0
   -1.2990    1.4676    8.5515 N   0  0  0  0  0  3           0  0  0
   -2.6608    0.0361    2.3983 N   0  0  0  0  0  3           0  0  0
   -2.8354    0.0416   -2.3260 N   0  0  0  0  0  3           0  0  0
   -1.2236   -0.0276    6.3474 C   0  0  0  0  0  4           0  0  0
    0.0000    0.0000    0.0000 C   0  0  0  0  0  4           0  0  0
   -1.9967    0.0232    1.1647 C   0  0  0  0  0  4           0  0  0
   -2.0563    0.0131   -1.1720 C   0  0  0  0  0  4           0  0  0
   -2.1612    0.0290    3.7029 C   0  0  0  0  0  4           0  0  0
   -0.6637    0.0163   -1.2212 C   0  0  0  0  0  4           0  0  0
   -2.4565   -0.5978    6.0430 C   0  0  0  0  0  4           0  0  0
   -0.4547    0.5765    5.3558 C   0  0  0  0  0  4           0  0  0
   -2.9170   -0.5695    4.7248 C   0  0  0  0  0  4           0  0  0
   -0.9232    0.5989    4.0395 C   0  0  0  0  0  4           0  0  0
    0.0493    0.0480   -2.4932 C   0  0  0  0  0  4           0  0  0
    1.9716    0.0000    1.3024 C   0  0  0  0  0  4           0  0  0
    3.4946   -0.0000    1.1835 C   0  0  2  0  0  4           0  0  0
    4.1676   -0.0000    2.5658 C   0  0  0  0  0  4           0  0  0
    3.9934    1.1908    0.3490 C   0  0  0  0  0  4           0  0  0
    5.6906    0.0029    2.4489 C   0  0  0  0  0  4           0  0  0
    5.5162    1.1947    0.2297 C   0  0  0  0  0  4           0  0  0
    6.1889    1.1673    1.5987 C   0  0  0  0  0  4           0  0  0
  1  2  2  0     0  0
  1  3  2  0     0  0
  1  8  1  0     0  0
  1 11  1  0     0  0
  4 12  1  0     0  0
  4 22  1  0     0  0
  5 21  2  0     0  0
  6 12  2  0     0  0
  6 13  1  0     0  0
  7 13  2  0     0  0
  7 14  1  0     0  0
  9 13  1  0     0  0
  9 15  1  0     0  0
 10 14  1  0     0  0
 11 17  2  0     0  0
 11 18  1  0     0  0
 12 16  1  0     0  0
 14 16  2  0     0  0
 15 19  2  0     0  0
 15 20  1  0     0  0
 16 21  1  0     0  0
 17 19  1  0     0  0
 18 20  2  0     0  0
 22 23  1  0     0  0
 23 24  1  0     0  0
 23 25  1  0     0  0
 24 26  1  0     0  0
 25 27  1  0     0  0
 26 28  1  0     0  0
 27 28  1  0     0  0
M  END
> <Compound >
3

> <standard_type>
pIC50

> <# Confs.>
25

> <canonical_smiles>
NC1=C(C([H])=O)C(OCC2CCCCC2)=NC(NC3=CC=C(S(=O)(N)=O)C=C3)=N1

> <standard_relation>
=

> <predicted_activity_value>
7.346787486224656

> <actual_activity_value>
7.309803919971486

> <Publication ID>
nan

> <standard_units>
nM

> hash
9676751364705744828

$$$$
2
XXILIB    08252103513D 0   0.00000     0.00000

 28 30  0     1  0            999 V2000
   -0.6078    0.1106    7.9999 S   0  0  2  0  0  6           0  0  0
   -1.7395    0.3150    8.8829 O   0  0  0  0  0  2           0  0  0
    0.2768   -1.0247    8.1737 O   0  0  0  0  0  2           0  0  0
    1.3875    0.0000    0.0000 O   0  0  0  0  0  2           0  0  0
   -0.4388   -0.4655   -3.4907 O   0  0  0  0  0  2           0  0  0
   -0.6488    0.0000    1.1871 N   0  0  0  0  0  3           0  0  0
   -2.7121    0.0362    0.0156 N   0  0  0  0  0  3           0  0  0
    0.3180    1.5405    7.9326 N   0  0  0  0  0  3           0  0  0
   -2.6608    0.0361    2.3983 N   0  0  0  0  0  3           0  0  0
   -2.8354    0.0416   -2.3260 N   0  0  0  0  0  3           0  0  0
   -1.2251    0.0544    6.3484 C   0  0  0  0  0  4           0  0  0
    0.0000    0.0000    0.0000 C   0  0  0  0  0  4           0  0  0
   -1.9967    0.0232    1.1647 C   0  0  0  0  0  4           0  0  0
   -2.0563    0.0131   -1.1720 C   0  0  0  0  0  4           0  0  0
   -2.1612    0.0290    3.7029 C   0  0  0  0  0  4           0  0  0
   -0.6637    0.0163   -1.2212 C   0  0  0  0  0  4           0  0  0
   -2.4331    0.6740    6.0409 C   0  0  0  0  0  4           0  0  0
   -0.4733   -0.5709    5.3567 C   0  0  0  0  0  4           0  0  0
   -2.8958    0.6557    4.7233 C   0  0  0  0  0  4           0  0  0
   -0.9450   -0.5849    4.0414 C   0  0  0  0  0  4           0  0  0
    0.0493    0.0480   -2.4932 C   0  0  0  0  0  4           0  0  0
    1.9716    0.0000    1.3024 C   0  0  0  0  0  4           0  0  0
    3.4946   -0.0000    1.1835 C   0  0  2  0  0  4           0  0  0
    4.1676   -0.0000    2.5658 C   0  0  0  0  0  4           0  0  0
    3.9934    1.1908    0.3490 C   0  0  0  0  0  4           0  0  0
    5.6906    0.0029    2.4489 C   0  0  0  0  0  4           0  0  0
    5.5162    1.1947    0.2297 C   0  0  0  0  0  4           0  0  0
    6.1889    1.1673    1.5987 C   0  0  0  0  0  4           0  0  0
  1  2  2  0     0  0
  1  3  2  0     0  0
  1  8  1  0     0  0
  1 11  1  0     0  0
  4 12  1  0     0  0
  4 22  1  0     0  0
  5 21  2  0     0  0
  6 12  2  0     0  0
  6 13  1  0     0  0
  7 13  2  0     0  0
  7 14  1  0     0  0
  9 13  1  0     0  0
  9 15  1  0     0  0
 10 14  1  0     0  0
 11 17  2  0     0  0
 11 18  1  0     0  0
 12 16  1  0     0  0
 14 16  2  0     0  0
 15 19  2  0     0  0
 15 20  1  0     0  0
 16 21  1  0     0  0
 17 19  1  0     0  0
 18 20  2  0     0  0
 22 23  1  0     0  0
 23 24  1  0     0  0
 23 25  1  0     0  0
 24 26  1  0     0  0
 25 27  1  0     0  0
 26 28  1  0     0  0
 27 28  1  0     0  0
M  END
> <Compound >
3

> <standard_type>
pIC50

> <# Confs.>
25

> <canonical_smiles>
NC1=C(C([H])=O)C(OCC2CCCCC2)=NC(NC3=CC=C(S(=O)(N)=O)C=C3)=N1

> <standard_relation>
=

> <predicted_activity_value>
7.346787486224656

> <actual_activity_value>
7.309803919971486

> <Publication ID>
nan

> <standard_units>
nM

> hash
9676751364705744828

$$$$
2
XXILIB    08252103513D 0   0.00000     0.00000

 28 30  0     1  0            999 V2000
   -8.4555    0.1621    3.8139 S   0  0  2  0  0  6           0  0  0
   -8.6629    1.2665    4.7301 O   0  0  0  0  0  2           0  0  0
   -9.2238    0.0561    2.5891 O   0  0  0  0  0  2           0  0  0
    1.3875    0.0000    0.0000 O   0  0  0  0  0  2           0  0  0
   -0.4388   -0.4655   -3.4907 O   0  0  0  0  0  2           0  0  0
   -0.6488   -0.0000    1.1871 N   0  0  0  0  0  3           0  0  0
   -2.7121    0.0362    0.0156 N   0  0  0  0  0  3           0  0  0
   -8.5591   -1.3072    4.6723 N   0  0  0  0  0  3           0  0  0
   -2.6608    0.0361    2.3983 N   0  0  0  0  0  3           0  0  0
   -2.8354    0.0416   -2.3260 N   0  0  0  0  0  3           0  0  0
   -6.7478    0.1513    3.3717 C   0  0  0  0  0  4           0  0  0
    0.0000    0.0000    0.0000 C   0  0  0  0  0  4           0  0  0
   -1.9967    0.0232    1.1647 C   0  0  0  0  0  4           0  0  0
   -2.0563    0.0131   -1.1720 C   0  0  0  0  0  4           0  0  0
   -4.0247    0.0600    2.6994 C   0  0  0  0  0  4           0  0  0
   -0.6637    0.0163   -1.2212 C   0  0  0  0  0  4           0  0  0
   -5.8099    0.7272    4.2240 C   0  0  0  0  0  4           0  0  0
   -6.3489   -0.4755    2.1938 C   0  0  0  0  0  4           0  0  0
   -4.4563    0.6816    3.8831 C   0  0  0  0  0  4           0  0  0
   -4.9924   -0.5151    1.8606 C   0  0  0  0  0  4           0  0  0
    0.0493    0.0480   -2.4932 C   0  0  0  0  0  4           0  0  0
    1.9716    0.0000    1.3024 C   0  0  0  0  0  4           0  0  0
    3.4946   -0.0000    1.1835 C   0  0  2  0  0  4           0  0  0
    4.1676   -0.0000    2.5658 C   0  0  0  0  0  4           0  0  0
    3.9934    1.1908    0.3490 C   0  0  0  0  0  4           0  0  0
    5.6906    0.0029    2.4489 C   0  0  0  0  0  4           0  0  0
    5.5162    1.1947    0.2297 C   0  0  0  0  0  4           0  0  0
    6.1889    1.1673    1.5987 C   0  0  0  0  0  4           0  0  0
  1  2  2  0     0  0
  1  3  2  0     0  0
  1  8  1  0     0  0
  1 11  1  0     0  0
  4 12  1  0     0  0
  4 22  1  0     0  0
  5 21  2  0     0  0
  6 12  2  0     0  0
  6 13  1  0     0  0
  7 13  2  0     0  0
  7 14  1  0     0  0
  9 13  1  0     0  0
  9 15  1  0     0  0
 10 14  1  0     0  0
 11 17  2  0     0  0
 11 18  1  0     0  0
 12 16  1  0     0  0
 14 16  2  0     0  0
 15 19  2  0     0  0
 15 20  1  0     0  0
 16 21  1  0     0  0
 17 19  1  0     0  0
 18 20  2  0     0  0
 22 23  1  0     0  0
 23 24  1  0     0  0
 23 25  1  0     0  0
 24 26  1  0     0  0
 25 27  1  0     0  0
 26 28  1  0     0  0
 27 28  1  0     0  0
M  END
> <Compound >
3

> <standard_type>
pIC50

> <# Confs.>
25

> <canonical_smiles>
NC1=C(C([H])=O)C(OCC2CCCCC2)=NC(NC3=CC=C(S(=O)(N)=O)C=C3)=N1

> <standard_relation>
=

> <predicted_activity_value>
7.346787486224656

> <actual_activity_value>
7.309803919971486

> <Publication ID>
nan

> <standard_units>
nM

> hash
9676751364705744828

$$$$
2
XXILIB    08252103513D 0   0.00000     0.00000

 28 30  0     1  0            999 V2000
   -0.6524   -0.0163    8.0164 S   0  0  2  0  0  6           0  0  0
   -1.3125   -1.1038    8.7117 O   0  0  0  0  0  2           0  0  0
    0.7939    0.0765    7.9816 O   0  0  0  0  0  2           0  0  0
    1.3875    0.0000    0.0000 O   0  0  0  0  0  2           0  0  0
   -0.4388   -0.4655   -3.4907 O   0  0  0  0  0  2           0  0  0
   -0.6488    0.0000    1.1871 N   0  0  0  0  0  3           0  0  0
   -2.7121    0.0362    0.0156 N   0  0  0  0  0  3           0  0  0
   -1.2990    1.4676    8.5515 N   0  0  0  0  0  3           0  0  0
   -2.6608    0.0361    2.3983 N   0  0  0  0  0  3           0  0  0
   -2.8354    0.0416   -2.3260 N   0  0  0  0  0  3           0  0  0
   -1.2236   -0.0276    6.3474 C   0  0  0  0  0  4           0  0  0
    0.0000    0.0000    0.0000 C   0  0  0  0  0  4           0  0  0
   -1.9967    0.0232    1.1647 C   0  0  0  0  0  4           0  0  0
   -2.0563    0.0131   -1.1720 C   0  0  0  0  0  4           0  0  0
   -2.1612    0.0290    3.7029 C   0  0  0  0  0  4           0  0  0
   -0.6637    0.0163   -1.2212 C   0  0  0  0  0  4           0  0  0
   -2.4565   -0.5978    6.0430 C   0  0  0  0  0  4           0  0  0
   -0.4547    0.5765    5.3558 C   0  0  0  0  0  4           0  0  0
   -2.9170   -0.5695    4.7248 C   0  0  0  0  0  4           0  0  0
   -0.9232    0.5989    4.0395 C   0  0  0  0  0  4           0  0  0
    0.0493    0.0480   -2.4932 C   0  0  0  0  0  4           0  0  0
    1.9716    0.0000    1.3024 C   0  0  0  0  0  4           0  0  0
    3.4946   -0.0000    1.1835 C   0  0  2  0  0  4           0  0  0
    4.0006    1.2388    0.4266 C   0  0  0  0  0  4           0  0  0
    4.0058   -1.2823    0.5070 C   0  0  0  0  0  4           0  0  0
    5.5231    1.2391    0.3042 C   0  0  0  0  0  4           0  0  0
    5.5283   -1.2846    0.3850 C   0  0  0  0  0  4           0  0  0
    6.0374   -0.0436   -0.3418 C   0  0  0  0  0  4           0  0  0
  1  2  2  0     0  0
  1  3  2  0     0  0
  1  8  1  0     0  0
  1 11  1  0     0  0
  4 12  1  0     0  0
  4 22  1  0     0  0
  5 21  2  0     0  0
  6 12  2  0     0  0
  6 13  1  0     0  0
  7 13  2  0     0  0
  7 14  1  0     0  0
  9 13  1  0     0  0
  9 15  1  0     0  0
 10 14  1  0     0  0
 11 17  2  0     0  0
 11 18  1  0     0  0
 12 16  1  0     0  0
 14 16  2  0     0  0
 15 19  2  0     0  0
 15 20  1  0     0  0
 16 21  1  0     0  0
 17 19  1  0     0  0
 18 20  2  0     0  0
 22 23  1  0     0  0
 23 24  1  0     0  0
 23 25  1  0     0  0
 24 26  1  0     0  0
 25 27  1  0     0  0
 26 28  1  0     0  0
 27 28  1  0     0  0
M  END
> <Compound >
3

> <standard_type>
pIC50

> <# Confs.>
25

> <canonical_smiles>
NC1=C(C([H])=O)C(OCC2CCCCC2)=NC(NC3=CC=C(S(=O)(N)=O)C=C3)=N1

> <standard_relation>
=

> <predicted_activity_value>
7.346787486224656

> <actual_activity_value>
7.309803919971486

> <Publication ID>
nan

> <standard_units>
nM

> hash
9676751364705744828

$$$$
2
XXILIB    08252103513D 0   0.00000     0.00000

 28 30  0     1  0            999 V2000
   -0.6078    0.1106    7.9999 S   0  0  2  0  0  6           0  0  0
   -1.7395    0.3150    8.8829 O   0  0  0  0  0  2           0  0  0
    0.2768   -1.0247    8.1737 O   0  0  0  0  0  2           0  0  0
    1.3875    0.0000    0.0000 O   0  0  0  0  0  2           0  0  0
   -0.4388   -0.4655   -3.4907 O   0  0  0  0  0  2           0  0  0
   -0.6488    0.0000    1.1871 N   0  0  0  0  0  3           0  0  0
   -2.7121    0.0362    0.0156 N   0  0  0  0  0  3           0  0  0
    0.3180    1.5405    7.9326 N   0  0  0  0  0  3           0  0  0
   -2.6608    0.0361    2.3983 N   0  0  0  0  0  3           0  0  0
   -2.8354    0.0416   -2.3260 N   0  0  0  0  0  3           0  0  0
   -1.2251    0.0544    6.3484 C   0  0  0  0  0  4           0  0  0
    0.0000    0.0000    0.0000 C   0  0  0  0  0  4           0  0  0
   -1.9967    0.0232    1.1647 C   0  0  0  0  0  4           0  0  0
   -2.0563    0.0131   -1.1720 C   0  0  0  0  0  4           0  0  0
   -2.1612    0.0290    3.7029 C   0  0  0  0  0  4           0  0  0
   -0.6637    0.0163   -1.2212 C   0  0  0  0  0  4           0  0  0
   -2.4331    0.6740    6.0409 C   0  0  0  0  0  4           0  0  0
   -0.4733   -0.5709    5.3567 C   0  0  0  0  0  4           0  0  0
   -2.8958    0.6557    4.7233 C   0  0  0  0  0  4           0  0  0
   -0.9450   -0.5849    4.0414 C   0  0  0  0  0  4           0  0  0
    0.0493    0.0480   -2.4932 C   0  0  0  0  0  4           0  0  0
    1.9716    0.0000    1.3024 C   0  0  0  0  0  4           0  0  0
    3.4946   -0.0000    1.1835 C   0  0  2  0  0  4           0  0  0
    4.0006    1.2388    0.4266 C   0  0  0  0  0  4           0  0  0
    4.0058   -1.2823    0.5070 C   0  0  0  0  0  4           0  0  0
    5.5231    1.2391    0.3042 C   0  0  0  0  0  4           0  0  0
    5.5283   -1.2846    0.3850 C   0  0  0  0  0  4           0  0  0
    6.0374   -0.0436   -0.3418 C   0  0  0  0  0  4           0  0  0
  1  2  2  0     0  0
  1  3  2  0     0  0
  1  8  1  0     0  0
  1 11  1  0     0  0
  4 12  1  0     0  0
  4 22  1  0     0  0
  5 21  2  0     0  0
  6 12  2  0     0  0
  6 13  1  0     0  0
  7 13  2  0     0  0
  7 14  1  0     0  0
  9 13  1  0     0  0
  9 15  1  0     0  0
 10 14  1  0     0  0
 11 17  2  0     0  0
 11 18  1  0     0  0
 12 16  1  0     0  0
 14 16  2  0     0  0
 15 19  2  0     0  0
 15 20  1  0     0  0
 16 21  1  0     0  0
 17 19  1  0     0  0
 18 20  2  0     0  0
 22 23  1  0     0  0
 23 24  1  0     0  0
 23 25  1  0     0  0
 24 26  1  0     0  0
 25 27  1  0     0  0
 26 28  1  0     0  0
 27 28  1  0     0  0
M  END
> <Compound >
3

> <standard_type>
pIC50

> <# Confs.>
25

> <canonical_smiles>
NC1=C(C([H])=O)C(OCC2CCCCC2)=NC(NC3=CC=C(S(=O)(N)=O)C=C3)=N1

> <standard_relation>
=

> <predicted_activity_value>
7.346787486224656

> <actual_activity_value>
7.309803919971486

> <Publication ID>
nan

> <standard_units>
nM

> hash
9676751364705744828

$$$$
2
XXILIB    08252103513D 0   0.00000     0.00000

 28 30  0     1  0            999 V2000
   -0.6078    0.1106    7.9999 S   0  0  2  0  0  6           0  0  0
    0.8298   -0.0659    7.9355 O   0  0  0  0  0  2           0  0  0
   -1.1872    1.2736    8.6427 O   0  0  0  0  0  2           0  0  0
    1.3875    0.0000    0.0000 O   0  0  0  0  0  2           0  0  0
   -0.4388   -0.4655   -3.4907 O   0  0  0  0  0  2           0  0  0
   -0.6488    0.0000    1.1871 N   0  0  0  0  0  3           0  0  0
   -2.7121    0.0362    0.0156 N   0  0  0  0  0  3           0  0  0
   -1.3190   -1.2998    8.6411 N   0  0  0  0  0  3           0  0  0
   -2.6608    0.0361    2.3983 N   0  0  0  0  0  3           0  0  0
   -2.8354    0.0416   -2.3260 N   0  0  0  0  0  3           0  0  0
   -1.2251    0.0544    6.3484 C   0  0  0  0  0  4           0  0  0
    0.0000    0.0000    0.0000 C   0  0  0  0  0  4           0  0  0
   -1.9967    0.0232    1.1647 C   0  0  0  0  0  4           0  0  0
   -2.0563    0.0131   -1.1720 C   0  0  0  0  0  4           0  0  0
   -2.1612    0.0290    3.7029 C   0  0  0  0  0  4           0  0  0
   -0.6637    0.0163   -1.2212 C   0  0  0  0  0  4           0  0  0
   -2.4331    0.6740    6.0409 C   0  0  0  0  0  4           0  0  0
   -0.4733   -0.5709    5.3567 C   0  0  0  0  0  4           0  0  0
   -2.8958    0.6557    4.7233 C   0  0  0  0  0  4           0  0  0
   -0.9450   -0.5849    4.0414 C   0  0  0  0  0  4           0  0  0
    0.0493    0.0480   -2.4932 C   0  0  0  0  0  4           0  0  0
    1.9716    0.0000    1.3024 C   0  0  0  0  0  4           0  0  0
    3.4946   -0.0000    1.1835 C   0  0  2  0  0  4           0  0  0
    4.0270   -1.2312    0.4290 C   0  0  0  0  0  4           0  0  0
    4.1627    0.1143    2.5616 C   0  0  0  0  0  4           0  0  0
    3.9304   -2.5192    1.2453 C   0  0  0  0  0  4           0  0  0
    4.0603   -1.1714    3.3807 C   0  0  0  0  0  4           0  0  0
    4.5975   -2.3733    2.6097 C   0  0  0  0  0  4           0  0  0
  1  2  2  0     0  0
  1  3  2  0     0  0
  1  8  1  0     0  0
  1 11  1  0     0  0
  4 12  1  0     0  0
  4 22  1  0     0  0
  5 21  2  0     0  0
  6 12  2  0     0  0
  6 13  1  0     0  0
  7 13  2  0     0  0
  7 14  1  0     0  0
  9 13  1  0     0  0
  9 15  1  0     0  0
 10 14  1  0     0  0
 11 17  2  0     0  0
 11 18  1  0     0  0
 12 16  1  0     0  0
 14 16  2  0     0  0
 15 19  2  0     0  0
 15 20  1  0     0  0
 16 21  1  0     0  0
 17 19  1  0     0  0
 18 20  2  0     0  0
 22 23  1  0     0  0
 23 24  1  0     0  0
 23 25  1  0     0  0
 24 26  1  0     0  0
 25 27  1  0     0  0
 26 28  1  0     0  0
 27 28  1  0     0  0
M  END
> <Compound >
3

> <standard_type>
pIC50

> <# Confs.>
25

> <canonical_smiles>
NC1=C(C([H])=O)C(OCC2CCCCC2)=NC(NC3=CC=C(S(=O)(N)=O)C=C3)=N1

> <standard_relation>
=

> <predicted_activity_value>
7.346787486224656

> <actual_activity_value>
7.309803919971486

> <Publication ID>
nan

> <standard_units>
nM

> hash
9676751364705744828

$$$$
14
XXILIB    08252103513D 0   0.00000     0.00000

 18 19  0     1  0            999 V2000
    0.0000    0.0000   -0.0000 O   0  0  0  0  0  2           0  0  0
    2.0513    0.0000    1.1767 N   0  0  0  0  0  3           0  0  0
    4.0977    0.0128   -0.0369 N   0  0  0  0  0  3           0  0  0
    4.1056    0.0199    2.3133 N   0  0  0  0  0  3           0  0  0
    4.1535    0.0359   -2.3920 N   0  0  0  0  0  3           0  0  0
    0.6836    0.0300   -3.4425 N   0  0  0  0  0  3           0  0  0
    1.3858   -0.0000    0.0000 C   0  0  0  0  0  4           0  0  0
    3.3990    0.0093    1.1215 C   0  0  0  0  0  4           0  0  0
    3.4166   -0.0054   -1.2097 C   0  0  0  0  0  4           0  0  0
    2.0251    0.0041   -1.2316 C   0  0  0  0  0  4           0  0  0
   -0.5860   -0.0000    1.3018 C   0  0  0  0  0  4           0  0  0
    1.2847    0.0188   -2.4496 C   0  0  0  0  0  4           0  0  0
   -2.1044   -0.0000    1.1524 C   0  0  1  0  0  4           0  0  0
   -2.5924   -1.2405    0.3848 C   0  0  0  0  0  4           0  0  0
   -2.7771    0.0881    2.5290 C   0  0  0  0  0  4           0  0  0
   -4.1158   -1.2815    0.2840 C   0  0  0  0  0  4           0  0  0
   -4.2993    0.0467    2.4210 C   0  0  0  0  0  4           0  0  0
   -4.7753   -1.1836    1.6557 C   0  0  0  0  0  4           0  0  0
  1  7  1  0     0  0
  1 11  1  0     0  0
  2  7  2  0     0  0
  2  8  1  0     0  0
  3  8  2  0     0  0
  3  9  1  0     0  0
  4  8  1  0     0  0
  5  9  1  0     0  0
  6 12  3  0     0  0
  7 10  1  0     0  0
  9 10  2  0     0  0
 10 12  1  0     0  0
 11 13  1  0     0  0
 13 14  1  0     0  0
 13 15  1  0     0  0
 14 16  1  0     0  0
 15 17  1  0     0  0
 16 18  1  0     0  0
 17 18  1  0     0  0
M  END
> <Compound >
15

> <standard_type>
pIC50

> <# Confs.>
25

> <canonical_smiles>
NC1=NC(N)=C(C#N)C(OCC2CCCCC2)=N1

> <standard_relation>
=

> <predicted_activity_value>
4.536139845515075

> <actual_activity_value>
4.214670164989233

> <Publication ID>
nan

> <standard_units>
nM

> hash
17811700771754468510

$$$$
14
XXILIB    08252103513D 0   0.00000     0.00000

 18 19  0     1  0            999 V2000
    0.0000    0.0000   -0.0000 O   0  0  0  0  0  2           0  0  0
    2.0513    0.0000    1.1767 N   0  0  0  0  0  3           0  0  0
    4.0977    0.0128   -0.0369 N   0  0  0  0  0  3           0  0  0
    4.1056    0.0199    2.3133 N   0  0  0  0  0  3           0  0  0
    4.1535    0.0359   -2.3920 N   0  0  0  0  0  3           0  0  0
    0.6836    0.0300   -3.4425 N   0  0  0  0  0  3           0  0  0
    1.3858   -0.0000    0.0000 C   0  0  0  0  0  4           0  0  0
    3.3990    0.0093    1.1215 C   0  0  0  0  0  4           0  0  0
    3.4166   -0.0054   -1.2097 C   0  0  0  0  0  4           0  0  0
    2.0251    0.0041   -1.2316 C   0  0  0  0  0  4           0  0  0
   -0.5860   -0.0000    1.3018 C   0  0  0  0  0  4           0  0  0
    1.2847    0.0188   -2.4496 C   0  0  0  0  0  4           0  0  0
   -2.1044   -0.0000    1.1524 C   0  0  1  0  0  4           0  0  0
   -2.8027   -0.0000    2.5231 C   0  0  0  0  0  4           0  0  0
   -2.5588    1.1994    0.3097 C   0  0  0  0  0  4           0  0  0
   -4.3225    0.0628    2.3847 C   0  0  0  0  0  4           0  0  0
   -4.0785    1.2560    0.1754 C   0  0  0  0  0  4           0  0  0
   -4.7637    1.2519    1.5378 C   0  0  0  0  0  4           0  0  0
  1  7  1  0     0  0
  1 11  1  0     0  0
  2  7  2  0     0  0
  2  8  1  0     0  0
  3  8  2  0     0  0
  3  9  1  0     0  0
  4  8  1  0     0  0
  5  9  1  0     0  0
  6 12  3  0     0  0
  7 10  1  0     0  0
  9 10  2  0     0  0
 10 12  1  0     0  0
 11 13  1  0     0  0
 13 14  1  0     0  0
 13 15  1  0     0  0
 14 16  1  0     0  0
 15 17  1  0     0  0
 16 18  1  0     0  0
 17 18  1  0     0  0
M  END
> <Compound >
15

> <standard_type>
pIC50

> <# Confs.>
25

> <canonical_smiles>
NC1=NC(N)=C(C#N)C(OCC2CCCCC2)=N1

> <standard_relation>
=

> <predicted_activity_value>
4.536139845515075

> <actual_activity_value>
4.214670164989233

> <Publication ID>
nan

> <standard_units>
nM

> hash
17811700771754468510

$$$$
14
XXILIB    08252103513D 0   0.00000     0.00000

 18 19  0     1  0            999 V2000
    0.0000    0.0000   -0.0000 O   0  0  0  0  0  2           0  0  0
    2.0513    0.0000    1.1767 N   0  0  0  0  0  3           0  0  0
    4.0977    0.0128   -0.0369 N   0  0  0  0  0  3           0  0  0
    4.1056    0.0199    2.3133 N   0  0  0  0  0  3           0  0  0
    4.1535    0.0359   -2.3920 N   0  0  0  0  0  3           0  0  0
    0.6836    0.0300   -3.4425 N   0  0  0  0  0  3           0  0  0
    1.3858   -0.0000    0.0000 C   0  0  0  0  0  4           0  0  0
    3.3990    0.0093    1.1215 C   0  0  0  0  0  4           0  0  0
    3.4166   -0.0054   -1.2097 C   0  0  0  0  0  4           0  0  0
    2.0251    0.0041   -1.2316 C   0  0  0  0  0  4           0  0  0
   -0.5860   -0.0000    1.3018 C   0  0  0  0  0  4           0  0  0
    1.2847    0.0188   -2.4496 C   0  0  0  0  0  4           0  0  0
   -2.1044   -0.0000    1.1524 C   0  0  1  0  0  4           0  0  0
   -2.5924    1.2405    0.3848 C   0  0  0  0  0  4           0  0  0
   -2.5738   -1.2875    0.4615 C   0  0  0  0  0  4           0  0  0
   -4.1052    1.2187    0.1757 C   0  0  0  0  0  4           0  0  0
   -4.0864   -1.3027    0.2559 C   0  0  0  0  0  4           0  0  0
   -4.5630   -0.0684   -0.5023 C   0  0  0  0  0  4           0  0  0
  1  7  1  0     0  0
  1 11  1  0     0  0
  2  7  2  0     0  0
  2  8  1  0     0  0
  3  8  2  0     0  0
  3  9  1  0     0  0
  4  8  1  0     0  0
  5  9  1  0     0  0
  6 12  3  0     0  0
  7 10  1  0     0  0
  9 10  2  0     0  0
 10 12  1  0     0  0
 11 13  1  0     0  0
 13 14  1  0     0  0
 13 15  1  0     0  0
 14 16  1  0     0  0
 15 17  1  0     0  0
 16 18  1  0     0  0
 17 18  1  0     0  0
M  END
> <Compound >
15

> <standard_type>
pIC50

> <# Confs.>
25

> <canonical_smiles>
NC1=NC(N)=C(C#N)C(OCC2CCCCC2)=N1

> <standard_relation>
=

> <predicted_activity_value>
4.536139845515075

> <actual_activity_value>
4.214670164989233

> <Publication ID>
nan

> <standard_units>
nM

> hash
17811700771754468510

$$$$
14
XXILIB    08252103513D 0   0.00000     0.00000

 18 19  0     1  0            999 V2000
    0.0000    0.0000   -0.0000 O   0  0  0  0  0  2           0  0  0
    2.0513    0.0000    1.1767 N   0  0  0  0  0  3           0  0  0
    4.0977    0.0128   -0.0369 N   0  0  0  0  0  3           0  0  0
    4.1056    0.0199    2.3133 N   0  0  0  0  0  3           0  0  0
    4.1535    0.0359   -2.3920 N   0  0  0  0  0  3           0  0  0
    0.6836    0.0300   -3.4425 N   0  0  0  0  0  3           0  0  0
    1.3858   -0.0000    0.0000 C   0  0  0  0  0  4           0  0  0
    3.3990    0.0093    1.1215 C   0  0  0  0  0  4           0  0  0
    3.4166   -0.0054   -1.2097 C   0  0  0  0  0  4           0  0  0
    2.0251    0.0041   -1.2316 C   0  0  0  0  0  4           0  0  0
   -0.5860   -0.0000    1.3018 C   0  0  0  0  0  4           0  0  0
    1.2847    0.0188   -2.4496 C   0  0  0  0  0  4           0  0  0
   -2.1044   -0.0000    1.1524 C   0  0  1  0  0  4           0  0  0
   -2.6204    1.2317    0.3872 C   0  0  0  0  0  4           0  0  0
   -2.8023   -0.1158    2.5158 C   0  0  0  0  0  4           0  0  0
   -2.5420    2.5187    1.2069 C   0  0  0  0  0  4           0  0  0
   -2.7183    1.1691    3.3379 C   0  0  0  0  0  4           0  0  0
   -3.2388    2.3710    2.5561 C   0  0  0  0  0  4           0  0  0
  1  7  1  0     0  0
  1 11  1  0     0  0
  2  7  2  0     0  0
  2  8  1  0     0  0
  3  8  2  0     0  0
  3  9  1  0     0  0
  4  8  1  0     0  0
  5  9  1  0     0  0
  6 12  3  0     0  0
  7 10  1  0     0  0
  9 10  2  0     0  0
 10 12  1  0     0  0
 11 13  1  0     0  0
 13 14  1  0     0  0
 13 15  1  0     0  0
 14 16  1  0     0  0
 15 17  1  0     0  0
 16 18  1  0     0  0
 17 18  1  0     0  0
M  END
> <Compound >
15

> <standard_type>
pIC50

> <# Confs.>
25

> <canonical_smiles>
NC1=NC(N)=C(C#N)C(OCC2CCCCC2)=N1

> <standard_relation>
=

> <predicted_activity_value>
4.536139845515075

> <actual_activity_value>
4.214670164989233

> <Publication ID>
nan

> <standard_units>
nM

> hash
17811700771754468510

$$$$
14
XXILIB    08252103513D 0   0.00000     0.00000

 18 19  0     1  0            999 V2000
    0.0000    0.0000   -0.0000 O   0  0  0  0  0  2           0  0  0
    2.0513    0.0000    1.1767 N   0  0  0  0  0  3           0  0  0
    4.0977    0.0128   -0.0369 N   0  0  0  0  0  3           0  0  0
    4.1056    0.0199    2.3133 N   0  0  0  0  0  3           0  0  0
    4.1535    0.0359   -2.3920 N   0  0  0  0  0  3           0  0  0
    0.6836    0.0300   -3.4425 N   0  0  0  0  0  3           0  0  0
    1.3858   -0.0000    0.0000 C   0  0  0  0  0  4           0  0  0
    3.3990    0.0093    1.1215 C   0  0  0  0  0  4           0  0  0
    3.4166   -0.0054   -1.2097 C   0  0  0  0  0  4           0  0  0
    2.0251    0.0041   -1.2316 C   0  0  0  0  0  4           0  0  0
   -0.5860   -0.0000    1.3018 C   0  0  0  0  0  4           0  0  0
    1.2847    0.0188   -2.4496 C   0  0  0  0  0  4           0  0  0
   -2.1044   -0.0000    1.1524 C   0  0  1  0  0  4           0  0  0
   -2.8293   -0.0000    2.5102 C   0  0  0  0  0  4           0  0  0
   -2.5832   -1.1763    0.2886 C   0  0  0  0  0  4           0  0  0
   -2.7412   -1.3434    3.2328 C   0  0  0  0  0  4           0  0  0
   -2.4893   -2.5201    1.0090 C   0  0  0  0  0  4           0  0  0
   -3.2184   -2.4914    2.3485 C   0  0  0  0  0  4           0  0  0
  1  7  1  0     0  0
  1 11  1  0     0  0
  2  7  2  0     0  0
  2  8  1  0     0  0
  3  8  2  0     0  0
  3  9  1  0     0  0
  4  8  1  0     0  0
  5  9  1  0     0  0
  6 12  3  0     0  0
  7 10  1  0     0  0
  9 10  2  0     0  0
 10 12  1  0     0  0
 11 13  1  0     0  0
 13 14  1  0     0  0
 13 15  1  0     0  0
 14 16  1  0     0  0
 15 17  1  0     0  0
 16 18  1  0     0  0
 17 18  1  0     0  0
M  END
> <Compound >
15

> <standard_type>
pIC50

> <# Confs.>
25

> <canonical_smiles>
NC1=NC(N)=C(C#N)C(OCC2CCCCC2)=N1

> <standard_relation>
=

> <predicted_activity_value>
4.536139845515075

> <actual_activity_value>
4.214670164989233

> <Publication ID>
nan

> <standard_units>
nM

> hash
17811700771754468510

$$$$
14
XXILIB    08252103513D 0   0.00000     0.00000

 18 19  0     1  0            999 V2000
    0.0000    0.0000    0.0000 O   0  0  0  0  0  2           0  0  0
    2.0513    0.0000    1.1767 N   0  0  0  0  0  3           0  0  0
    4.0977    0.0128   -0.0369 N   0  0  0  0  0  3           0  0  0
    4.1056    0.0199    2.3133 N   0  0  0  0  0  3           0  0  0
    4.1535    0.0359   -2.3920 N   0  0  0  0  0  3           0  0  0
    0.6836    0.0300   -3.4425 N   0  0  0  0  0  3           0  0  0
    1.3858   -0.0000    0.0000 C   0  0  0  0  0  4           0  0  0
    3.3990    0.0093    1.1215 C   0  0  0  0  0  4           0  0  0
    3.4166   -0.0054   -1.2097 C   0  0  0  0  0  4           0  0  0
    2.0251    0.0041   -1.2316 C   0  0  0  0  0  4           0  0  0
   -0.5860    0.0000    1.3018 C   0  0  0  0  0  4           0  0  0
    1.2847    0.0188   -2.4496 C   0  0  0  0  0  4           0  0  0
   -0.7860    1.4458    1.7459 C   0  0  1  0  0  4           0  0  0
   -1.7120    2.2060    0.7811 C   0  0  0  0  0  4           0  0  0
   -1.3343    1.4942    3.1786 C   0  0  0  0  0  4           0  0  0
   -1.9684    3.6365    1.2507 C   0  0  0  0  0  4           0  0  0
   -1.5881    2.9266    3.6415 C   0  0  0  0  0  4           0  0  0
   -2.5036    3.6748    2.6783 C   0  0  0  0  0  4           0  0  0
  1  7  1  0     0  0
  1 11  1  0     0  0
  2  7  2  0     0  0
  2  8  1  0     0  0
  3  8  2  0     0  0
  3  9  1  0     0  0
  4  8  1  0     0  0
  5  9  1  0     0  0
  6 12  3  0     0  0
  7 10  1  0     0  0
  9 10  2  0     0  0
 10 12  1  0     0  0
 11 13  1  0     0  0
 13 14  1  0     0  0
 13 15  1  0     0  0
 14 16  1  0     0  0
 15 17  1  0     0  0
 16 18  1  0     0  0
 17 18  1  0     0  0
M  END
> <Compound >
15

> <standard_type>
pIC50

> <# Confs.>
25

> <canonical_smiles>
NC1=NC(N)=C(C#N)C(OCC2CCCCC2)=N1

> <standard_relation>
=

> <predicted_activity_value>
4.536139845515075

> <actual_activity_value>
4.214670164989233

> <Publication ID>
nan

> <standard_units>
nM

> hash
17811700771754468510

$$$$
14
XXILIB    08252103513D 0   0.00000     0.00000

 18 19  0     1  0            999 V2000
    0.0000    0.0000    0.0000 O   0  0  0  0  0  2           0  0  0
    2.0513    0.0000    1.1767 N   0  0  0  0  0  3           0  0  0
    4.0977    0.0128   -0.0369 N   0  0  0  0  0  3           0  0  0
    4.1056    0.0199    2.3133 N   0  0  0  0  0  3           0  0  0
    4.1535    0.0359   -2.3920 N   0  0  0  0  0  3           0  0  0
    0.6836    0.0300   -3.4425 N   0  0  0  0  0  3           0  0  0
    1.3858   -0.0000    0.0000 C   0  0  0  0  0  4           0  0  0
    3.3990    0.0093    1.1215 C   0  0  0  0  0  4           0  0  0
    3.4166   -0.0054   -1.2097 C   0  0  0  0  0  4           0  0  0
    2.0251    0.0041   -1.2316 C   0  0  0  0  0  4           0  0  0
   -0.5860    0.0000    1.3018 C   0  0  0  0  0  4           0  0  0
    1.2847    0.0188   -2.4496 C   0  0  0  0  0  4           0  0  0
   -0.7860   -1.4458    1.7459 C   0  0  1  0  0  4           0  0  0
   -1.4167   -1.5200    3.1470 C   0  0  0  0  0  4           0  0  0
   -1.6408   -2.2062    0.7229 C   0  0  0  0  0  4           0  0  0
   -1.6782   -2.9626    3.5751 C   0  0  0  0  0  4           0  0  0
   -1.8982   -3.6470    1.1569 C   0  0  0  0  0  4           0  0  0
   -2.5199   -3.7126    2.5479 C   0  0  0  0  0  4           0  0  0
  1  7  1  0     0  0
  1 11  1  0     0  0
  2  7  2  0     0  0
  2  8  1  0     0  0
  3  8  2  0     0  0
  3  9  1  0     0  0
  4  8  1  0     0  0
  5  9  1  0     0  0
  6 12  3  0     0  0
  7 10  1  0     0  0
  9 10  2  0     0  0
 10 12  1  0     0  0
 11 13  1  0     0  0
 13 14  1  0     0  0
 13 15  1  0     0  0
 14 16  1  0     0  0
 15 17  1  0     0  0
 16 18  1  0     0  0
 17 18  1  0     0  0
M  END
> <Compound >
15

> <standard_type>
pIC50

> <# Confs.>
25

> <canonical_smiles>
NC1=NC(N)=C(C#N)C(OCC2CCCCC2)=N1

> <standard_relation>
=

> <predicted_activity_value>
4.536139845515075

> <actual_activity_value>
4.214670164989233

> <Publication ID>
nan

> <standard_units>
nM

> hash
17811700771754468510

$$$$
14
XXILIB    08252103513D 0   0.00000     0.00000

 18 19  0     1  0            999 V2000
    0.0000    0.0000   -0.0000 O   0  0  0  0  0  2           0  0  0
    2.0513    0.0000    1.1767 N   0  0  0  0  0  3           0  0  0
    4.0977    0.0128   -0.0369 N   0  0  0  0  0  3           0  0  0
    4.1056    0.0199    2.3133 N   0  0  0  0  0  3           0  0  0
    4.1535    0.0359   -2.3920 N   0  0  0  0  0  3           0  0  0
    0.6836    0.0300   -3.4425 N   0  0  0  0  0  3           0  0  0
    1.3858   -0.0000    0.0000 C   0  0  0  0  0  4           0  0  0
    3.3990    0.0093    1.1215 C   0  0  0  0  0  4           0  0  0
    3.4166   -0.0054   -1.2097 C   0  0  0  0  0  4           0  0  0
    2.0251    0.0041   -1.2316 C   0  0  0  0  0  4           0  0  0
   -0.5860   -0.0000    1.3018 C   0  0  0  0  0  4           0  0  0
    1.2847    0.0188   -2.4496 C   0  0  0  0  0  4           0  0  0
   -2.1044   -0.0000    1.1524 C   0  0  1  0  0  4           0  0  0
   -2.6311   -1.2270    0.3888 C   0  0  0  0  0  4           0  0  0
   -2.6477    1.3082    0.5526 C   0  0  0  0  0  4           0  0  0
   -2.5294   -1.1184   -1.1306 C   0  0  0  0  0  4           0  0  0
   -2.5462    1.3974   -0.9680 C   0  0  0  0  0  4           0  0  0
   -3.1486    0.1741   -1.6476 C   0  0  0  0  0  4           0  0  0
  1  7  1  0     0  0
  1 11  1  0     0  0
  2  7  2  0     0  0
  2  8  1  0     0  0
  3  8  2  0     0  0
  3  9  1  0     0  0
  4  8  1  0     0  0
  5  9  1  0     0  0
  6 12  3  0     0  0
  7 10  1  0     0  0
  9 10  2  0     0  0
 10 12  1  0     0  0
 11 13  1  0     0  0
 13 14  1  0     0  0
 13 15  1  0     0  0
 14 16  1  0     0  0
 15 17  1  0     0  0
 16 18  1  0     0  0
 17 18  1  0     0  0
M  END
> <Compound >
15

> <standard_type>
pIC50

> <# Confs.>
25

> <canonical_smiles>
NC1=NC(N)=C(C#N)C(OCC2CCCCC2)=N1

> <standard_relation>
=

> <predicted_activity_value>
4.536139845515075

> <actual_activity_value>
4.214670164989233

> <Publication ID>
nan

> <standard_units>
nM

> hash
17811700771754468510

$$$$
14
XXILIB    08252103513D 0   0.00000     0.00000

 18 19  0     1  0            999 V2000
    0.0000    0.0000    0.0000 O   0  0  0  0  0  2           0  0  0
    2.0513   -0.5884    1.0191 N   0  0  0  0  0  3           0  0  0
    4.0977    0.0295   -0.0255 N   0  0  0  0  0  3           0  0  0
    4.1056   -1.1394    2.0133 N   0  0  0  0  0  3           0  0  0
    4.1535    1.2271   -2.0536 N   0  0  0  0  0  3           0  0  0
    0.6836    1.7472   -2.9663 N   0  0  0  0  0  3           0  0  0
    1.3858   -0.0000    0.0000 C   0  0  0  0  0  4           0  0  0
    3.3990   -0.5527    0.9760 C   0  0  0  0  0  4           0  0  0
    3.4166    0.6002   -1.0503 C   0  0  0  0  0  4           0  0  0
    2.0251    0.6193   -1.0646 C   0  0  0  0  0  4           0  0  0
   -0.5860   -0.0000    1.3018 C   0  0  0  0  0  4           0  0  0
    1.2847    1.2411   -2.1120 C   0  0  0  0  0  4           0  0  0
   -1.9277   -0.7229    1.2320 C   0  0  1  0  0  4           0  0  0
   -1.7573   -2.1773    0.7607 C   0  0  0  0  0  4           0  0  0
   -2.6347   -0.6708    2.5931 C   0  0  0  0  0  4           0  0  0
   -3.0873   -2.9281    0.7470 C   0  0  0  0  0  4           0  0  0
   -3.9631   -1.4229    2.5723 C   0  0  0  0  0  4           0  0  0
   -3.7867   -2.8624    2.1007 C   0  0  0  0  0  4           0  0  0
  1  7  1  0     0  0
  1 11  1  0     0  0
  2  7  2  0     0  0
  2  8  1  0     0  0
  3  8  2  0     0  0
  3  9  1  0     0  0
  4  8  1  0     0  0
  5  9  1  0     0  0
  6 12  3  0     0  0
  7 10  1  0     0  0
  9 10  2  0     0  0
 10 12  1  0     0  0
 11 13  1  0     0  0
 13 14  1  0     0  0
 13 15  1  0     0  0
 14 16  1  0     0  0
 15 17  1  0     0  0
 16 18  1  0     0  0
 17 18  1  0     0  0
M  END
> <Compound >
15

> <standard_type>
pIC50

> <# Confs.>
25

> <canonical_smiles>
NC1=NC(N)=C(C#N)C(OCC2CCCCC2)=N1

> <standard_relation>
=

> <predicted_activity_value>
4.536139845515075

> <actual_activity_value>
4.214670164989233

> <Publication ID>
nan

> <standard_units>
nM

> hash
17811700771754468510

$$$$
14
XXILIB    08252103513D 0   0.00000     0.00000

 18 19  0     1  0            999 V2000
    0.0000    0.0000   -0.0000 O   0  0  0  0  0  2           0  0  0
    2.0513    0.5884    1.0191 N   0  0  0  0  0  3           0  0  0
    4.0977   -0.0074   -0.0383 N   0  0  0  0  0  3           0  0  0
    4.1056    1.1739    1.9934 N   0  0  0  0  0  3           0  0  0
    4.1535   -1.1649   -2.0895 N   0  0  0  0  0  3           0  0  0
    0.6836   -1.6953   -2.9963 N   0  0  0  0  0  3           0  0  0
    1.3858    0.0000    0.0000 C   0  0  0  0  0  4           0  0  0
    3.3990    0.5689    0.9666 C   0  0  0  0  0  4           0  0  0
    3.4166   -0.6095   -1.0449 C   0  0  0  0  0  4           0  0  0
    2.0251   -0.6123   -1.0687 C   0  0  0  0  0  4           0  0  0
   -0.5860    0.0000    1.3018 C   0  0  0  0  0  4           0  0  0
    1.2847   -1.2085   -2.1308 C   0  0  0  0  0  4           0  0  0
   -1.9277    0.7229    1.2320 C   0  0  1  0  0  4           0  0  0
   -2.8885    0.0286    0.2515 C   0  0  0  0  0  4           0  0  0
   -2.5544    0.8234    2.6293 C   0  0  0  0  0  4           0  0  0
   -4.2559    0.7084    0.2210 C   0  0  0  0  0  4           0  0  0
   -3.9205    1.5037    2.5915 C   0  0  0  0  0  4           0  0  0
   -4.8660    0.8124    1.6148 C   0  0  0  0  0  4           0  0  0
  1  7  1  0     0  0
  1 11  1  0     0  0
  2  7  2  0     0  0
  2  8  1  0     0  0
  3  8  2  0     0  0
  3  9  1  0     0  0
  4  8  1  0     0  0
  5  9  1  0     0  0
  6 12  3  0     0  0
  7 10  1  0     0  0
  9 10  2  0     0  0
 10 12  1  0     0  0
 11 13  1  0     0  0
 13 14  1  0     0  0
 13 15  1  0     0  0
 14 16  1  0     0  0
 15 17  1  0     0  0
 16 18  1  0     0  0
 17 18  1  0     0  0
M  END
> <Compound >
15

> <standard_type>
pIC50

> <# Confs.>
25

> <canonical_smiles>
NC1=NC(N)=C(C#N)C(OCC2CCCCC2)=N1

> <standard_relation>
=

> <predicted_activity_value>
4.536139845515075

> <actual_activity_value>
4.214670164989233

> <Publication ID>
nan

> <standard_units>
nM

> hash
17811700771754468510

$$$$
14
XXILIB    08252103513D 0   0.00000     0.00000

 18 19  0     1  0            999 V2000
    0.0000    0.0000   -0.0000 O   0  0  0  0  0  2           0  0  0
    2.0513    0.5884    1.0191 N   0  0  0  0  0  3           0  0  0
    4.0977   -0.0074   -0.0383 N   0  0  0  0  0  3           0  0  0
    4.1056    1.1739    1.9934 N   0  0  0  0  0  3           0  0  0
    4.1535   -1.1649   -2.0895 N   0  0  0  0  0  3           0  0  0
    0.6836   -1.6953   -2.9963 N   0  0  0  0  0  3           0  0  0
    1.3858    0.0000    0.0000 C   0  0  0  0  0  4           0  0  0
    3.3990    0.5689    0.9666 C   0  0  0  0  0  4           0  0  0
    3.4166   -0.6095   -1.0449 C   0  0  0  0  0  4           0  0  0
    2.0251   -0.6123   -1.0687 C   0  0  0  0  0  4           0  0  0
   -0.5860    0.0000    1.3018 C   0  0  0  0  0  4           0  0  0
    1.2847   -1.2085   -2.1308 C   0  0  0  0  0  4           0  0  0
   -1.9277    0.7229    1.2320 C   0  0  1  0  0  4           0  0  0
   -2.6170    0.7600    2.6067 C   0  0  0  0  0  4           0  0  0
   -1.7424    2.1418    0.6772 C   0  0  0  0  0  4           0  0  0
   -3.9319    1.5357    2.5606 C   0  0  0  0  0  4           0  0  0
   -3.0602    2.9113    0.6338 C   0  0  0  0  0  4           0  0  0
   -3.7393    2.9405    1.9990 C   0  0  0  0  0  4           0  0  0
  1  7  1  0     0  0
  1 11  1  0     0  0
  2  7  2  0     0  0
  2  8  1  0     0  0
  3  8  2  0     0  0
  3  9  1  0     0  0
  4  8  1  0     0  0
  5  9  1  0     0  0
  6 12  3  0     0  0
  7 10  1  0     0  0
  9 10  2  0     0  0
 10 12  1  0     0  0
 11 13  1  0     0  0
 13 14  1  0     0  0
 13 15  1  0     0  0
 14 16  1  0     0  0
 15 17  1  0     0  0
 16 18  1  0     0  0
 17 18  1  0     0  0
M  END
> <Compound >
15

> <standard_type>
pIC50

> <# Confs.>
25

> <canonical_smiles>
NC1=NC(N)=C(C#N)C(OCC2CCCCC2)=N1

> <standard_relation>
=

> <predicted_activity_value>
4.536139845515075

> <actual_activity_value>
4.214670164989233

> <Publication ID>
nan

> <standard_units>
nM

> hash
17811700771754468510

$$$$
14
XXILIB    08252103513D 0   0.00000     0.00000

 18 19  0     1  0            999 V2000
    0.0000    0.0000    0.0000 O   0  0  0  0  0  2           0  0  0
    2.0513   -0.5884    1.0191 N   0  0  0  0  0  3           0  0  0
    4.0977    0.0295   -0.0255 N   0  0  0  0  0  3           0  0  0
    4.1056   -1.1394    2.0133 N   0  0  0  0  0  3           0  0  0
    4.1535    1.2271   -2.0536 N   0  0  0  0  0  3           0  0  0
    0.6836    1.7472   -2.9663 N   0  0  0  0  0  3           0  0  0
    1.3858   -0.0000    0.0000 C   0  0  0  0  0  4           0  0  0
    3.3990   -0.5527    0.9760 C   0  0  0  0  0  4           0  0  0
    3.4166    0.6002   -1.0503 C   0  0  0  0  0  4           0  0  0
    2.0251    0.6193   -1.0646 C   0  0  0  0  0  4           0  0  0
   -0.5860   -0.0000    1.3018 C   0  0  0  0  0  4           0  0  0
    1.2847    1.2411   -2.1120 C   0  0  0  0  0  4           0  0  0
   -1.9277   -0.7229    1.2320 C   0  0  1  0  0  4           0  0  0
   -2.8885   -0.0286    0.2515 C   0  0  0  0  0  4           0  0  0
   -1.7232   -2.1938    0.8444 C   0  0  0  0  0  4           0  0  0
   -4.2123   -0.7802    0.1275 C   0  0  0  0  0  4           0  0  0
   -3.0500   -2.9388    0.7224 C   0  0  0  0  0  4           0  0  0
   -3.9983   -2.2427   -0.2481 C   0  0  0  0  0  4           0  0  0
  1  7  1  0     0  0
  1 11  1  0     0  0
  2  7  2  0     0  0
  2  8  1  0     0  0
  3  8  2  0     0  0
  3  9  1  0     0  0
  4  8  1  0     0  0
  5  9  1  0     0  0
  6 12  3  0     0  0
  7 10  1  0     0  0
  9 10  2  0     0  0
 10 12  1  0     0  0
 11 13  1  0     0  0
 13 14  1  0     0  0
 13 15  1  0     0  0
 14 16  1  0     0  0
 15 17  1  0     0  0
 16 18  1  0     0  0
 17 18  1  0     0  0
M  END
> <Compound >
15

> <standard_type>
pIC50

> <# Confs.>
25

> <canonical_smiles>
NC1=NC(N)=C(C#N)C(OCC2CCCCC2)=N1

> <standard_relation>
=

> <predicted_activity_value>
4.536139845515075

> <actual_activity_value>
4.214670164989233

> <Publication ID>
nan

> <standard_units>
nM

> hash
17811700771754468510

$$$$
14
XXILIB    08252103513D 0   0.00000     0.00000

 18 19  0     1  0            999 V2000
    0.0000    0.0000    0.0000 O   0  0  0  0  0  2           0  0  0
    2.0513   -0.5884    1.0191 N   0  0  0  0  0  3           0  0  0
    4.0977    0.0295   -0.0255 N   0  0  0  0  0  3           0  0  0
    4.1056   -1.1394    2.0133 N   0  0  0  0  0  3           0  0  0
    4.1535    1.2271   -2.0536 N   0  0  0  0  0  3           0  0  0
    0.6836    1.7472   -2.9663 N   0  0  0  0  0  3           0  0  0
    1.3858   -0.0000    0.0000 C   0  0  0  0  0  4           0  0  0
    3.3990   -0.5527    0.9760 C   0  0  0  0  0  4           0  0  0
    3.4166    0.6002   -1.0503 C   0  0  0  0  0  4           0  0  0
    2.0251    0.6193   -1.0646 C   0  0  0  0  0  4           0  0  0
   -0.5860   -0.0000    1.3018 C   0  0  0  0  0  4           0  0  0
    1.2847    1.2411   -2.1120 C   0  0  0  0  0  4           0  0  0
   -1.9277   -0.7229    1.2320 C   0  0  1  0  0  4           0  0  0
   -2.6170   -0.7600    2.6067 C   0  0  0  0  0  4           0  0  0
   -2.8362   -0.0644    0.1848 C   0  0  0  0  0  4           0  0  0
   -3.9892   -1.4269    2.5348 C   0  0  0  0  0  4           0  0  0
   -4.2056   -0.7357    0.1182 C   0  0  0  0  0  4           0  0  0
   -4.8809   -0.7721    1.4851 C   0  0  0  0  0  4           0  0  0
  1  7  1  0     0  0
  1 11  1  0     0  0
  2  7  2  0     0  0
  2  8  1  0     0  0
  3  8  2  0     0  0
  3  9  1  0     0  0
  4  8  1  0     0  0
  5  9  1  0     0  0
  6 12  3  0     0  0
  7 10  1  0     0  0
  9 10  2  0     0  0
 10 12  1  0     0  0
 11 13  1  0     0  0
 13 14  1  0     0  0
 13 15  1  0     0  0
 14 16  1  0     0  0
 15 17  1  0     0  0
 16 18  1  0     0  0
 17 18  1  0     0  0
M  END
> <Compound >
15

> <standard_type>
pIC50

> <# Confs.>
25

> <canonical_smiles>
NC1=NC(N)=C(C#N)C(OCC2CCCCC2)=N1

> <standard_relation>
=

> <predicted_activity_value>
4.536139845515075

> <actual_activity_value>
4.214670164989233

> <Publication ID>
nan

> <standard_units>
nM

> hash
17811700771754468510

$$$$
14
XXILIB    08252103513D 0   0.00000     0.00000

 18 19  0     1  0            999 V2000
    0.0000    0.0000   -0.0000 O   0  0  0  0  0  2           0  0  0
    2.0513    0.5884    1.0191 N   0  0  0  0  0  3           0  0  0
    4.0977   -0.0074   -0.0383 N   0  0  0  0  0  3           0  0  0
    4.1056    1.1739    1.9934 N   0  0  0  0  0  3           0  0  0
    4.1535   -1.1649   -2.0895 N   0  0  0  0  0  3           0  0  0
    0.6836   -1.6953   -2.9963 N   0  0  0  0  0  3           0  0  0
    1.3858    0.0000    0.0000 C   0  0  0  0  0  4           0  0  0
    3.3990    0.5689    0.9666 C   0  0  0  0  0  4           0  0  0
    3.4166   -0.6095   -1.0449 C   0  0  0  0  0  4           0  0  0
    2.0251   -0.6123   -1.0687 C   0  0  0  0  0  4           0  0  0
   -0.5860    0.0000    1.3018 C   0  0  0  0  0  4           0  0  0
    1.2847   -1.2085   -2.1308 C   0  0  0  0  0  4           0  0  0
   -1.9277    0.7229    1.2320 C   0  0  1  0  0  4           0  0  0
   -1.7573    2.1773    0.7607 C   0  0  0  0  0  4           0  0  0
   -2.8972   -0.0363    0.3159 C   0  0  0  0  0  4           0  0  0
   -3.1010    2.8910    0.6278 C   0  0  0  0  0  4           0  0  0
   -4.2379    0.6824    0.1877 C   0  0  0  0  0  4           0  0  0
   -4.0607    2.1243   -0.2762 C   0  0  0  0  0  4           0  0  0
  1  7  1  0     0  0
  1 11  1  0     0  0
  2  7  2  0     0  0
  2  8  1  0     0  0
  3  8  2  0     0  0
  3  9  1  0     0  0
  4  8  1  0     0  0
  5  9  1  0     0  0
  6 12  3  0     0  0
  7 10  1  0     0  0
  9 10  2  0     0  0
 10 12  1  0     0  0
 11 13  1  0     0  0
 13 14  1  0     0  0
 13 15  1  0     0  0
 14 16  1  0     0  0
 15 17  1  0     0  0
 16 18  1  0     0  0
 17 18  1  0     0  0
M  END
> <Compound >
15

> <standard_type>
pIC50

> <# Confs.>
25

> <canonical_smiles>
NC1=NC(N)=C(C#N)C(OCC2CCCCC2)=N1

> <standard_relation>
=

> <predicted_activity_value>
4.536139845515075

> <actual_activity_value>
4.214670164989233

> <Publication ID>
nan

> <standard_units>
nM

> hash
17811700771754468510

$$$$
14
XXILIB    08252103513D 0   0.00000     0.00000

 18 19  0     1  0            999 V2000
    0.0000    0.0000   -0.0000 O   0  0  0  0  0  2           0  0  0
    2.0513   -0.5884    1.0191 N   0  0  0  0  0  3           0  0  0
    4.0977    0.0295   -0.0255 N   0  0  0  0  0  3           0  0  0
    4.1056   -1.1394    2.0133 N   0  0  0  0  0  3           0  0  0
    4.1535    1.2271   -2.0536 N   0  0  0  0  0  3           0  0  0
    0.6836    1.7472   -2.9663 N   0  0  0  0  0  3           0  0  0
    1.3858   -0.0000    0.0000 C   0  0  0  0  0  4           0  0  0
    3.3990   -0.5527    0.9760 C   0  0  0  0  0  4           0  0  0
    3.4166    0.6002   -1.0503 C   0  0  0  0  0  4           0  0  0
    2.0251    0.6193   -1.0646 C   0  0  0  0  0  4           0  0  0
   -0.5860   -0.0000    1.3018 C   0  0  0  0  0  4           0  0  0
    1.2847    1.2411   -2.1120 C   0  0  0  0  0  4           0  0  0
   -1.4452    1.2521    1.4492 C   0  0  1  0  0  4           0  0  0
   -2.5663    1.2901    0.3965 C   0  0  0  0  0  4           0  0  0
   -2.0263    1.3381    2.8670 C   0  0  0  0  0  4           0  0  0
   -3.4698    2.5085    0.5748 C   0  0  0  0  0  4           0  0  0
   -2.9281    2.5579    3.0382 C   0  0  0  0  0  4           0  0  0
   -4.0345    2.5907    1.9891 C   0  0  0  0  0  4           0  0  0
  1  7  1  0     0  0
  1 11  1  0     0  0
  2  7  2  0     0  0
  2  8  1  0     0  0
  3  8  2  0     0  0
  3  9  1  0     0  0
  4  8  1  0     0  0
  5  9  1  0     0  0
  6 12  3  0     0  0
  7 10  1  0     0  0
  9 10  2  0     0  0
 10 12  1  0     0  0
 11 13  1  0     0  0
 13 14  1  0     0  0
 13 15  1  0     0  0
 14 16  1  0     0  0
 15 17  1  0     0  0
 16 18  1  0     0  0
 17 18  1  0     0  0
M  END
> <Compound >
15

> <standard_type>
pIC50

> <# Confs.>
25

> <canonical_smiles>
NC1=NC(N)=C(C#N)C(OCC2CCCCC2)=N1

> <standard_relation>
=

> <predicted_activity_value>
4.536139845515075

> <actual_activity_value>
4.214670164989233

> <Publication ID>
nan

> <standard_units>
nM

> hash
17811700771754468510

$$$$
14
XXILIB    08252103513D 0   0.00000     0.00000

 18 19  0     1  0            999 V2000
    0.0000    0.0000   -0.0000 O   0  0  0  0  0  2           0  0  0
    2.0513   -1.0191    0.5884 N   0  0  0  0  0  3           0  0  0
    4.0977    0.0383   -0.0074 N   0  0  0  0  0  3           0  0  0
    4.1056   -1.9934    1.1739 N   0  0  0  0  0  3           0  0  0
    4.1535    2.0895   -1.1649 N   0  0  0  0  0  3           0  0  0
    0.6836    2.9963   -1.6953 N   0  0  0  0  0  3           0  0  0
    1.3858   -0.0000    0.0000 C   0  0  0  0  0  4           0  0  0
    3.3990   -0.9666    0.5689 C   0  0  0  0  0  4           0  0  0
    3.4166    1.0449   -0.6095 C   0  0  0  0  0  4           0  0  0
    2.0251    1.0687   -0.6123 C   0  0  0  0  0  4           0  0  0
   -0.5860    0.0000    1.3018 C   0  0  0  0  0  4           0  0  0
    1.2847    2.1308   -1.2085 C   0  0  0  0  0  4           0  0  0
   -1.9277    0.7229    1.2320 C   0  0  1  0  0  4           0  0  0
   -2.8885    0.0286    0.2515 C   0  0  0  0  0  4           0  0  0
   -2.5544    0.8234    2.6293 C   0  0  0  0  0  4           0  0  0
   -4.2559    0.7084    0.2210 C   0  0  0  0  0  4           0  0  0
   -3.9205    1.5037    2.5915 C   0  0  0  0  0  4           0  0  0
   -4.8660    0.8124    1.6148 C   0  0  0  0  0  4           0  0  0
  1  7  1  0     0  0
  1 11  1  0     0  0
  2  7  2  0     0  0
  2  8  1  0     0  0
  3  8  2  0     0  0
  3  9  1  0     0  0
  4  8  1  0     0  0
  5  9  1  0     0  0
  6 12  3  0     0  0
  7 10  1  0     0  0
  9 10  2  0     0  0
 10 12  1  0     0  0
 11 13  1  0     0  0
 13 14  1  0     0  0
 13 15  1  0     0  0
 14 16  1  0     0  0
 15 17  1  0     0  0
 16 18  1  0     0  0
 17 18  1  0     0  0
M  END
> <Compound >
15

> <standard_type>
pIC50

> <# Confs.>
25

> <canonical_smiles>
NC1=NC(N)=C(C#N)C(OCC2CCCCC2)=N1

> <standard_relation>
=

> <predicted_activity_value>
4.536139845515075

> <actual_activity_value>
4.214670164989233

> <Publication ID>
nan

> <standard_units>
nM

> hash
17811700771754468510

$$$$
14
XXILIB    08252103513D 0   0.00000     0.00000

 18 19  0     1  0            999 V2000
    0.0000    0.0000    0.0000 O   0  0  0  0  0  2           0  0  0
    2.0513    0.5884    1.0191 N   0  0  0  0  0  3           0  0  0
    4.0977   -0.0074   -0.0383 N   0  0  0  0  0  3           0  0  0
    4.1056    1.1739    1.9934 N   0  0  0  0  0  3           0  0  0
    4.1535   -1.1649   -2.0895 N   0  0  0  0  0  3           0  0  0
    0.6836   -1.6953   -2.9963 N   0  0  0  0  0  3           0  0  0
    1.3858    0.0000    0.0000 C   0  0  0  0  0  4           0  0  0
    3.3990    0.5689    0.9666 C   0  0  0  0  0  4           0  0  0
    3.4166   -0.6095   -1.0449 C   0  0  0  0  0  4           0  0  0
    2.0251   -0.6123   -1.0687 C   0  0  0  0  0  4           0  0  0
   -0.5860    0.0000    1.3018 C   0  0  0  0  0  4           0  0  0
    1.2847   -1.2085   -2.1308 C   0  0  0  0  0  4           0  0  0
   -1.4452   -1.2521    1.4492 C   0  0  1  0  0  4           0  0  0
   -0.6070   -2.5307    1.2785 C   0  0  0  0  0  4           0  0  0
   -2.1654   -1.2500    2.8044 C   0  0  0  0  0  4           0  0  0
   -1.4458   -3.7901    1.4860 C   0  0  0  0  0  4           0  0  0
   -3.0018   -2.5112    3.0050 C   0  0  0  0  0  4           0  0  0
   -2.1652   -3.7742    2.8306 C   0  0  0  0  0  4           0  0  0
  1  7  1  0     0  0
  1 11  1  0     0  0
  2  7  2  0     0  0
  2  8  1  0     0  0
  3  8  2  0     0  0
  3  9  1  0     0  0
  4  8  1  0     0  0
  5  9  1  0     0  0
  6 12  3  0     0  0
  7 10  1  0     0  0
  9 10  2  0     0  0
 10 12  1  0     0  0
 11 13  1  0     0  0
 13 14  1  0     0  0
 13 15  1  0     0  0
 14 16  1  0     0  0
 15 17  1  0     0  0
 16 18  1  0     0  0
 17 18  1  0     0  0
M  END
> <Compound >
15

> <standard_type>
pIC50

> <# Confs.>
25

> <canonical_smiles>
NC1=NC(N)=C(C#N)C(OCC2CCCCC2)=N1

> <standard_relation>
=

> <predicted_activity_value>
4.536139845515075

> <actual_activity_value>
4.214670164989233

> <Publication ID>
nan

> <standard_units>
nM

> hash
17811700771754468510

$$$$
14
XXILIB    08252103513D 0   0.00000     0.00000

 18 19  0     1  0            999 V2000
    0.0000    0.0000    0.0000 O   0  0  0  0  0  2           0  0  0
    2.0513    0.0000    1.1767 N   0  0  0  0  0  3           0  0  0
    4.0977    0.0128   -0.0369 N   0  0  0  0  0  3           0  0  0
    4.1056    0.0199    2.3133 N   0  0  0  0  0  3           0  0  0
    4.1535    0.0359   -2.3920 N   0  0  0  0  0  3           0  0  0
    0.6836    0.0300   -3.4425 N   0  0  0  0  0  3           0  0  0
    1.3858   -0.0000    0.0000 C   0  0  0  0  0  4           0  0  0
    3.3990    0.0093    1.1215 C   0  0  0  0  0  4           0  0  0
    3.4166   -0.0054   -1.2097 C   0  0  0  0  0  4           0  0  0
    2.0251    0.0041   -1.2316 C   0  0  0  0  0  4           0  0  0
   -0.5860    0.0000    1.3018 C   0  0  0  0  0  4           0  0  0
    1.2847    0.0188   -2.4496 C   0  0  0  0  0  4           0  0  0
   -0.7860   -1.4458    1.7459 C   0  0  1  0  0  4           0  0  0
   -1.7096   -2.2306    0.7972 C   0  0  0  0  0  4           0  0  0
   -1.3083   -1.5226    3.1884 C   0  0  0  0  0  4           0  0  0
   -3.1768   -1.8225    0.9211 C   0  0  0  0  0  4           0  0  0
   -2.7735   -1.1086    3.3130 C   0  0  0  0  0  4           0  0  0
   -3.6646   -1.9041    2.3645 C   0  0  0  0  0  4           0  0  0
  1  7  1  0     0  0
  1 11  1  0     0  0
  2  7  2  0     0  0
  2  8  1  0     0  0
  3  8  2  0     0  0
  3  9  1  0     0  0
  4  8  1  0     0  0
  5  9  1  0     0  0
  6 12  3  0     0  0
  7 10  1  0     0  0
  9 10  2  0     0  0
 10 12  1  0     0  0
 11 13  1  0     0  0
 13 14  1  0     0  0
 13 15  1  0     0  0
 14 16  1  0     0  0
 15 17  1  0     0  0
 16 18  1  0     0  0
 17 18  1  0     0  0
M  END
> <Compound >
15

> <standard_type>
pIC50

> <# Confs.>
25

> <canonical_smiles>
NC1=NC(N)=C(C#N)C(OCC2CCCCC2)=N1

> <standard_relation>
=

> <predicted_activity_value>
4.536139845515075

> <actual_activity_value>
4.214670164989233

> <Publication ID>
nan

> <standard_units>
nM

> hash
17811700771754468510

$$$$
14
XXILIB    08252103513D 0   0.00000     0.00000

 18 19  0     1  0            999 V2000
    0.0000    0.0000    0.0000 O   0  0  0  0  0  2           0  0  0
    2.0513    0.5884    1.0191 N   0  0  0  0  0  3           0  0  0
    4.0977   -0.0074   -0.0383 N   0  0  0  0  0  3           0  0  0
    4.1056    1.1739    1.9934 N   0  0  0  0  0  3           0  0  0
    4.1535   -1.1649   -2.0895 N   0  0  0  0  0  3           0  0  0
    0.6836   -1.6953   -2.9963 N   0  0  0  0  0  3           0  0  0
    1.3858    0.0000    0.0000 C   0  0  0  0  0  4           0  0  0
    3.3990    0.5689    0.9666 C   0  0  0  0  0  4           0  0  0
    3.4166   -0.6095   -1.0449 C   0  0  0  0  0  4           0  0  0
    2.0251   -0.6123   -1.0687 C   0  0  0  0  0  4           0  0  0
   -0.5860    0.0000    1.3018 C   0  0  0  0  0  4           0  0  0
    1.2847   -1.2085   -2.1308 C   0  0  0  0  0  4           0  0  0
   -1.4452   -1.2521    1.4492 C   0  0  1  0  0  4           0  0  0
   -2.1097   -1.3163    2.8351 C   0  0  0  0  0  4           0  0  0
   -2.5001   -1.3109    0.3361 C   0  0  0  0  0  4           0  0  0
   -3.0213   -2.5343    2.9705 C   0  0  0  0  0  4           0  0  0
   -3.4076   -2.5304    0.4774 C   0  0  0  0  0  4           0  0  0
   -4.0596   -2.5892    1.8548 C   0  0  0  0  0  4           0  0  0
  1  7  1  0     0  0
  1 11  1  0     0  0
  2  7  2  0     0  0
  2  8  1  0     0  0
  3  8  2  0     0  0
  3  9  1  0     0  0
  4  8  1  0     0  0
  5  9  1  0     0  0
  6 12  3  0     0  0
  7 10  1  0     0  0
  9 10  2  0     0  0
 10 12  1  0     0  0
 11 13  1  0     0  0
 13 14  1  0     0  0
 13 15  1  0     0  0
 14 16  1  0     0  0
 15 17  1  0     0  0
 16 18  1  0     0  0
 17 18  1  0     0  0
M  END
> <Compound >
15

> <standard_type>
pIC50

> <# Confs.>
25

> <canonical_smiles>
NC1=NC(N)=C(C#N)C(OCC2CCCCC2)=N1

> <standard_relation>
=

> <predicted_activity_value>
4.536139845515075

> <actual_activity_value>
4.214670164989233

> <Publication ID>
nan

> <standard_units>
nM

> hash
17811700771754468510

$$$$
14
XXILIB    08252103513D 0   0.00000     0.00000

 18 19  0     1  0            999 V2000
    0.0000    0.0000   -0.0000 O   0  0  0  0  0  2           0  0  0
    2.0513   -0.5884    1.0191 N   0  0  0  0  0  3           0  0  0
    4.0977    0.0295   -0.0255 N   0  0  0  0  0  3           0  0  0
    4.1056   -1.1394    2.0133 N   0  0  0  0  0  3           0  0  0
    4.1535    1.2271   -2.0536 N   0  0  0  0  0  3           0  0  0
    0.6836    1.7472   -2.9663 N   0  0  0  0  0  3           0  0  0
    1.3858   -0.0000    0.0000 C   0  0  0  0  0  4           0  0  0
    3.3990   -0.5527    0.9760 C   0  0  0  0  0  4           0  0  0
    3.4166    0.6002   -1.0503 C   0  0  0  0  0  4           0  0  0
    2.0251    0.6193   -1.0646 C   0  0  0  0  0  4           0  0  0
   -0.5860   -0.0000    1.3018 C   0  0  0  0  0  4           0  0  0
    1.2847    1.2411   -2.1120 C   0  0  0  0  0  4           0  0  0
   -1.4452    1.2521    1.4492 C   0  0  1  0  0  4           0  0  0
   -0.6070    2.5307    1.2785 C   0  0  0  0  0  4           0  0  0
   -2.6069    1.2247    0.4466 C   0  0  0  0  0  4           0  0  0
   -1.4689    3.7887    1.3625 C   0  0  0  0  0  4           0  0  0
   -3.4641    2.4847    0.5360 C   0  0  0  0  0  4           0  0  0
   -2.6259    3.7478    0.3697 C   0  0  0  0  0  4           0  0  0
  1  7  1  0     0  0
  1 11  1  0     0  0
  2  7  2  0     0  0
  2  8  1  0     0  0
  3  8  2  0     0  0
  3  9  1  0     0  0
  4  8  1  0     0  0
  5  9  1  0     0  0
  6 12  3  0     0  0
  7 10  1  0     0  0
  9 10  2  0     0  0
 10 12  1  0     0  0
 11 13  1  0     0  0
 13 14  1  0     0  0
 13 15  1  0     0  0
 14 16  1  0     0  0
 15 17  1  0     0  0
 16 18  1  0     0  0
 17 18  1  0     0  0
M  END
> <Compound >
15

> <standard_type>
pIC50

> <# Confs.>
25

> <canonical_smiles>
NC1=NC(N)=C(C#N)C(OCC2CCCCC2)=N1

> <standard_relation>
=

> <predicted_activity_value>
4.536139845515075

> <actual_activity_value>
4.214670164989233

> <Publication ID>
nan

> <standard_units>
nM

> hash
17811700771754468510

$$$$
14
XXILIB    08252103513D 0   0.00000     0.00000

 18 19  0     1  0            999 V2000
    0.0000    0.0000    0.0000 O   0  0  0  0  0  2           0  0  0
    2.0513    0.5884    1.0191 N   0  0  0  0  0  3           0  0  0
    4.0977   -0.0074   -0.0383 N   0  0  0  0  0  3           0  0  0
    4.1056    1.1739    1.9934 N   0  0  0  0  0  3           0  0  0
    4.1535   -1.1649   -2.0895 N   0  0  0  0  0  3           0  0  0
    0.6836   -1.6953   -2.9963 N   0  0  0  0  0  3           0  0  0
    1.3858    0.0000    0.0000 C   0  0  0  0  0  4           0  0  0
    3.3990    0.5689    0.9666 C   0  0  0  0  0  4           0  0  0
    3.4166   -0.6095   -1.0449 C   0  0  0  0  0  4           0  0  0
    2.0251   -0.6123   -1.0687 C   0  0  0  0  0  4           0  0  0
   -0.5860    0.0000    1.3018 C   0  0  0  0  0  4           0  0  0
    1.2847   -1.2085   -2.1308 C   0  0  0  0  0  4           0  0  0
   -1.4452   -1.2521    1.4492 C   0  0  1  0  0  4           0  0  0
   -2.5663   -1.2901    0.3965 C   0  0  0  0  0  4           0  0  0
   -0.5733   -2.5122    1.3621 C   0  0  0  0  0  4           0  0  0
   -3.3937   -2.5700    0.4960 C   0  0  0  0  0  4           0  0  0
   -1.4066   -3.7874    1.4622 C   0  0  0  0  0  4           0  0  0
   -2.5179   -3.8161    0.4183 C   0  0  0  0  0  4           0  0  0
  1  7  1  0     0  0
  1 11  1  0     0  0
  2  7  2  0     0  0
  2  8  1  0     0  0
  3  8  2  0     0  0
  3  9  1  0     0  0
  4  8  1  0     0  0
  5  9  1  0     0  0
  6 12  3  0     0  0
  7 10  1  0     0  0
  9 10  2  0     0  0
 10 12  1  0     0  0
 11 13  1  0     0  0
 13 14  1  0     0  0
 13 15  1  0     0  0
 14 16  1  0     0  0
 15 17  1  0     0  0
 16 18  1  0     0  0
 17 18  1  0     0  0
M  END
> <Compound >
15

> <standard_type>
pIC50

> <# Confs.>
25

> <canonical_smiles>
NC1=NC(N)=C(C#N)C(OCC2CCCCC2)=N1

> <standard_relation>
=

> <predicted_activity_value>
4.536139845515075

> <actual_activity_value>
4.214670164989233

> <Publication ID>
nan

> <standard_units>
nM

> hash
17811700771754468510

$$$$
14
XXILIB    08252103513D 0   0.00000     0.00000

 18 19  0     1  0            999 V2000
    0.0000    0.0000   -0.0000 O   0  0  0  0  0  2           0  0  0
    2.0513    0.5884    1.0191 N   0  0  0  0  0  3           0  0  0
    4.0977   -0.0074   -0.0383 N   0  0  0  0  0  3           0  0  0
    4.1056    1.1739    1.9934 N   0  0  0  0  0  3           0  0  0
    4.1535   -1.1649   -2.0895 N   0  0  0  0  0  3           0  0  0
    0.6836   -1.6953   -2.9963 N   0  0  0  0  0  3           0  0  0
    1.3858    0.0000    0.0000 C   0  0  0  0  0  4           0  0  0
    3.3990    0.5689    0.9666 C   0  0  0  0  0  4           0  0  0
    3.4166   -0.6095   -1.0449 C   0  0  0  0  0  4           0  0  0
    2.0251   -0.6123   -1.0687 C   0  0  0  0  0  4           0  0  0
   -0.5860    0.0000    1.3018 C   0  0  0  0  0  4           0  0  0
    1.2847   -1.2085   -2.1308 C   0  0  0  0  0  4           0  0  0
   -1.9277    0.7229    1.2320 C   0  0  1  0  0  4           0  0  0
   -1.7864    2.1819    0.7626 C   0  0  0  0  0  4           0  0  0
   -2.6691    0.6611    2.5758 C   0  0  0  0  0  4           0  0  0
   -1.1709    3.0925    1.8241 C   0  0  0  0  0  4           0  0  0
   -2.0499    1.5668    3.6388 C   0  0  0  0  0  4           0  0  0
   -1.9252    3.0054    3.1475 C   0  0  0  0  0  4           0  0  0
  1  7  1  0     0  0
  1 11  1  0     0  0
  2  7  2  0     0  0
  2  8  1  0     0  0
  3  8  2  0     0  0
  3  9  1  0     0  0
  4  8  1  0     0  0
  5  9  1  0     0  0
  6 12  3  0     0  0
  7 10  1  0     0  0
  9 10  2  0     0  0
 10 12  1  0     0  0
 11 13  1  0     0  0
 13 14  1  0     0  0
 13 15  1  0     0  0
 14 16  1  0     0  0
 15 17  1  0     0  0
 16 18  1  0     0  0
 17 18  1  0     0  0
M  END
> <Compound >
15

> <standard_type>
pIC50

> <# Confs.>
25

> <canonical_smiles>
NC1=NC(N)=C(C#N)C(OCC2CCCCC2)=N1

> <standard_relation>
=

> <predicted_activity_value>
4.536139845515075

> <actual_activity_value>
4.214670164989233

> <Publication ID>
nan

> <standard_units>
nM

> hash
17811700771754468510

$$$$
14
XXILIB    08252103513D 0   0.00000     0.00000

 18 19  0     1  0            999 V2000
    0.0000    0.0000    0.0000 O   0  0  0  0  0  2           0  0  0
    2.0513    1.0191    0.5884 N   0  0  0  0  0  3           0  0  0
    4.0977   -0.0255   -0.0295 N   0  0  0  0  0  3           0  0  0
    4.1056    2.0133    1.1394 N   0  0  0  0  0  3           0  0  0
    4.1535   -2.0536   -1.2271 N   0  0  0  0  0  3           0  0  0
    0.6836   -2.9663   -1.7472 N   0  0  0  0  0  3           0  0  0
    1.3858    0.0000    0.0000 C   0  0  0  0  0  4           0  0  0
    3.3990    0.9760    0.5527 C   0  0  0  0  0  4           0  0  0
    3.4166   -1.0503   -0.6002 C   0  0  0  0  0  4           0  0  0
    2.0251   -1.0646   -0.6193 C   0  0  0  0  0  4           0  0  0
   -0.5860   -0.0000    1.3018 C   0  0  0  0  0  4           0  0  0
    1.2847   -2.1120   -1.2411 C   0  0  0  0  0  4           0  0  0
   -1.9277   -0.7229    1.2320 C   0  0  1  0  0  4           0  0  0
   -2.6170   -0.7600    2.6067 C   0  0  0  0  0  4           0  0  0
   -2.8362   -0.0644    0.1848 C   0  0  0  0  0  4           0  0  0
   -3.9892   -1.4269    2.5348 C   0  0  0  0  0  4           0  0  0
   -4.2056   -0.7357    0.1182 C   0  0  0  0  0  4           0  0  0
   -4.8809   -0.7721    1.4851 C   0  0  0  0  0  4           0  0  0
  1  7  1  0     0  0
  1 11  1  0     0  0
  2  7  2  0     0  0
  2  8  1  0     0  0
  3  8  2  0     0  0
  3  9  1  0     0  0
  4  8  1  0     0  0
  5  9  1  0     0  0
  6 12  3  0     0  0
  7 10  1  0     0  0
  9 10  2  0     0  0
 10 12  1  0     0  0
 11 13  1  0     0  0
 13 14  1  0     0  0
 13 15  1  0     0  0
 14 16  1  0     0  0
 15 17  1  0     0  0
 16 18  1  0     0  0
 17 18  1  0     0  0
M  END
> <Compound >
15

> <standard_type>
pIC50

> <# Confs.>
25

> <canonical_smiles>
NC1=NC(N)=C(C#N)C(OCC2CCCCC2)=N1

> <standard_relation>
=

> <predicted_activity_value>
4.536139845515075

> <actual_activity_value>
4.214670164989233

> <Publication ID>
nan

> <standard_units>
nM

> hash
17811700771754468510

$$$$
14
XXILIB    08252103513D 0   0.00000     0.00000

 18 19  0     1  0            999 V2000
    0.0000    0.0000   -0.0000 O   0  0  0  0  0  2           0  0  0
    2.0513   -0.5884    1.0191 N   0  0  0  0  0  3           0  0  0
    4.0977    0.0295   -0.0255 N   0  0  0  0  0  3           0  0  0
    4.1056   -1.1394    2.0133 N   0  0  0  0  0  3           0  0  0
    4.1535    1.2271   -2.0536 N   0  0  0  0  0  3           0  0  0
    0.6836    1.7472   -2.9663 N   0  0  0  0  0  3           0  0  0
    1.3858   -0.0000    0.0000 C   0  0  0  0  0  4           0  0  0
    3.3990   -0.5527    0.9760 C   0  0  0  0  0  4           0  0  0
    3.4166    0.6002   -1.0503 C   0  0  0  0  0  4           0  0  0
    2.0251    0.6193   -1.0646 C   0  0  0  0  0  4           0  0  0
   -0.5860   -0.0000    1.3018 C   0  0  0  0  0  4           0  0  0
    1.2847    1.2411   -2.1120 C   0  0  0  0  0  4           0  0  0
   -1.4452    1.2521    1.4492 C   0  0  1  0  0  4           0  0  0
   -2.1097    1.3163    2.8351 C   0  0  0  0  0  4           0  0  0
   -0.6058    2.5103    1.1889 C   0  0  0  0  0  4           0  0  0
   -2.9221    2.5971    3.0151 C   0  0  0  0  0  4           0  0  0
   -1.4238    3.7864    1.3705 C   0  0  0  0  0  4           0  0  0
   -2.0824    3.8411    2.7449 C   0  0  0  0  0  4           0  0  0
  1  7  1  0     0  0
  1 11  1  0     0  0
  2  7  2  0     0  0
  2  8  1  0     0  0
  3  8  2  0     0  0
  3  9  1  0     0  0
  4  8  1  0     0  0
  5  9  1  0     0  0
  6 12  3  0     0  0
  7 10  1  0     0  0
  9 10  2  0     0  0
 10 12  1  0     0  0
 11 13  1  0     0  0
 13 14  1  0     0  0
 13 15  1  0     0  0
 14 16  1  0     0  0
 15 17  1  0     0  0
 16 18  1  0     0  0
 17 18  1  0     0  0
M  END
> <Compound >
15

> <standard_type>
pIC50

> <# Confs.>
25

> <canonical_smiles>
NC1=NC(N)=C(C#N)C(OCC2CCCCC2)=N1

> <standard_relation>
=

> <predicted_activity_value>
4.536139845515075

> <actual_activity_value>
4.214670164989233

> <Publication ID>
nan

> <standard_units>
nM

> hash
17811700771754468510

$$$$
14
XXILIB    08252103513D 0   0.00000     0.00000

 18 19  0     1  0            999 V2000
    0.0000    0.0000    0.0000 O   0  0  0  0  0  2           0  0  0
    2.0513    0.0000    1.1767 N   0  0  0  0  0  3           0  0  0
    4.0977    0.0128   -0.0369 N   0  0  0  0  0  3           0  0  0
    4.1056    0.0199    2.3133 N   0  0  0  0  0  3           0  0  0
    4.1535    0.0359   -2.3920 N   0  0  0  0  0  3           0  0  0
    0.6836    0.0300   -3.4425 N   0  0  0  0  0  3           0  0  0
    1.3858   -0.0000    0.0000 C   0  0  0  0  0  4           0  0  0
    3.3990    0.0093    1.1215 C   0  0  0  0  0  4           0  0  0
    3.4166   -0.0054   -1.2097 C   0  0  0  0  0  4           0  0  0
    2.0251    0.0041   -1.2316 C   0  0  0  0  0  4           0  0  0
   -0.5860    0.0000    1.3018 C   0  0  0  0  0  4           0  0  0
    1.2847    0.0188   -2.4496 C   0  0  0  0  0  4           0  0  0
   -0.7860    1.4458    1.7459 C   0  0  1  0  0  4           0  0  0
   -1.4163    1.5495    3.1462 C   0  0  0  0  0  4           0  0  0
   -1.6160    2.2371    0.7240 C   0  0  0  0  0  4           0  0  0
   -2.8970    1.1726    3.1627 C   0  0  0  0  0  4           0  0  0
   -3.0951    1.8557    0.7363 C   0  0  0  0  0  4           0  0  0
   -3.6932    1.9707    2.1348 C   0  0  0  0  0  4           0  0  0
  1  7  1  0     0  0
  1 11  1  0     0  0
  2  7  2  0     0  0
  2  8  1  0     0  0
  3  8  2  0     0  0
  3  9  1  0     0  0
  4  8  1  0     0  0
  5  9  1  0     0  0
  6 12  3  0     0  0
  7 10  1  0     0  0
  9 10  2  0     0  0
 10 12  1  0     0  0
 11 13  1  0     0  0
 13 14  1  0     0  0
 13 15  1  0     0  0
 14 16  1  0     0  0
 15 17  1  0     0  0
 16 18  1  0     0  0
 17 18  1  0     0  0
M  END
> <Compound >
15

> <standard_type>
pIC50

> <# Confs.>
25

> <canonical_smiles>
NC1=NC(N)=C(C#N)C(OCC2CCCCC2)=N1

> <standard_relation>
=

> <predicted_activity_value>
4.536139845515075

> <actual_activity_value>
4.214670164989233

> <Publication ID>
nan

> <standard_units>
nM

> hash
17811700771754468510

$$$$
13
XXILIB    08252103513D 0   0.00000     0.00000

 21 23  0     1  0            999 V2000
    0.8084   -1.4814   -3.2505 S   0  0  0  0  0  2           0  0  0
    0.0000   -0.0000    0.0000 O   0  0  0  0  0  2           0  0  0
    2.0467    0.0000    1.1796 N   0  0  0  0  0  3           0  0  0
    4.0967   -0.0012   -0.0242 N   0  0  0  0  0  3           0  0  0
    4.0942    0.0014    2.3257 N   0  0  0  0  0  3           0  0  0
    4.1704    0.0202   -2.3758 N   0  0  0  0  0  3           0  0  0
    1.2698   -0.0040   -2.4926 C   0  0  0  0  0  4           0  0  0
    0.0418   -0.6731   -4.5437 C   0  0  0  0  0  4           0  0  0
    1.3861    0.0000    0.0000 C   0  0  0  0  0  4           0  0  0
    3.3935    0.0004    1.1304 C   0  0  0  0  0  4           0  0  0
    3.4213   -0.0195   -1.2008 C   0  0  0  0  0  4           0  0  0
    2.0264   -0.0037   -1.2357 C   0  0  0  0  0  4           0  0  0
    0.8251    1.0774   -3.2371 C   0  0  0  0  0  4           0  0  0
    0.1227    0.6930   -4.4160 C   0  0  0  0  0  4           0  0  0
   -0.6156   -0.0000    1.2897 C   0  0  0  0  0  4           0  0  0
   -2.1307   -0.0000    1.1068 C   0  0  1  0  0  4           0  0  0
   -2.6044    1.2385    0.3293 C   0  0  0  0  0  4           0  0  0
   -2.6125   -1.2828    0.4103 C   0  0  0  0  0  4           0  0  0
   -4.1203    1.2373    0.1407 C   0  0  0  0  0  4           0  0  0
   -4.1281   -1.2851    0.2211 C   0  0  0  0  0  4           0  0  0
   -4.6026   -0.0452   -0.5302 C   0  0  0  0  0  4           0  0  0
  1  7  1  0     0  0
  1  8  1  0     0  0
  2  9  1  0     0  0
  2 15  1  0     0  0
  3  9  2  0     0  0
  3 10  1  0     0  0
  4 10  2  0     0  0
  4 11  1  0     0  0
  5 10  1  0     0  0
  6 11  1  0     0  0
  7 12  1  0     0  0
  7 13  2  0     0  0
  8 14  2  0     0  0
  9 12  1  0     0  0
 11 12  2  0     0  0
 13 14  1  0     0  0
 15 16  1  0     0  0
 16 17  1  0     0  0
 16 18  1  0     0  0
 17 19  1  0     0  0
 18 20  1  0     0  0
 19 21  1  0     0  0
 20 21  1  0     0  0
M  END
> <Compound >
14

> <standard_type>
pIC50

> <# Confs.>
25

> <canonical_smiles>
NC1=NC(N)=C(C2=CC=CS2)C(OCC3CCCCC3)=N1

> <standard_relation>
=

> <predicted_activity_value>
4.49815642831505

> <actual_activity_value>
4.259637310505756

> <Publication ID>
nan

> <standard_units>
nM

> hash
6423501613014595294

$$$$
13
XXILIB    08252103513D 0   0.00000     0.00000

 21 23  0     1  0            999 V2000
    0.8084   -1.4814   -3.2505 S   0  0  0  0  0  2           0  0  0
    0.0000   -0.0000    0.0000 O   0  0  0  0  0  2           0  0  0
    2.0467    0.0000    1.1796 N   0  0  0  0  0  3           0  0  0
    4.0967   -0.0012   -0.0242 N   0  0  0  0  0  3           0  0  0
    4.0942    0.0014    2.3257 N   0  0  0  0  0  3           0  0  0
    4.1704    0.0202   -2.3758 N   0  0  0  0  0  3           0  0  0
    1.2698   -0.0040   -2.4926 C   0  0  0  0  0  4           0  0  0
    0.0418   -0.6731   -4.5437 C   0  0  0  0  0  4           0  0  0
    1.3861    0.0000    0.0000 C   0  0  0  0  0  4           0  0  0
    3.3935    0.0004    1.1304 C   0  0  0  0  0  4           0  0  0
    3.4213   -0.0195   -1.2008 C   0  0  0  0  0  4           0  0  0
    2.0264   -0.0037   -1.2357 C   0  0  0  0  0  4           0  0  0
    0.8251    1.0774   -3.2371 C   0  0  0  0  0  4           0  0  0
    0.1227    0.6930   -4.4160 C   0  0  0  0  0  4           0  0  0
   -0.6156   -0.0000    1.2897 C   0  0  0  0  0  4           0  0  0
   -2.1307   -0.0000    1.1068 C   0  0  1  0  0  4           0  0  0
   -2.6044   -1.2385    0.3293 C   0  0  0  0  0  4           0  0  0
   -2.8596    0.0927    2.4569 C   0  0  0  0  0  4           0  0  0
   -4.1215   -1.2427    0.1500 C   0  0  0  0  0  4           0  0  0
   -4.3766    0.0885    2.2788 C   0  0  0  0  0  4           0  0  0
   -4.8462   -1.1282    1.4875 C   0  0  0  0  0  4           0  0  0
  1  7  1  0     0  0
  1  8  1  0     0  0
  2  9  1  0     0  0
  2 15  1  0     0  0
  3  9  2  0     0  0
  3 10  1  0     0  0
  4 10  2  0     0  0
  4 11  1  0     0  0
  5 10  1  0     0  0
  6 11  1  0     0  0
  7 12  1  0     0  0
  7 13  2  0     0  0
  8 14  2  0     0  0
  9 12  1  0     0  0
 11 12  2  0     0  0
 13 14  1  0     0  0
 15 16  1  0     0  0
 16 17  1  0     0  0
 16 18  1  0     0  0
 17 19  1  0     0  0
 18 20  1  0     0  0
 19 21  1  0     0  0
 20 21  1  0     0  0
M  END
> <Compound >
14

> <standard_type>
pIC50

> <# Confs.>
25

> <canonical_smiles>
NC1=NC(N)=C(C2=CC=CS2)C(OCC3CCCCC3)=N1

> <standard_relation>
=

> <predicted_activity_value>
4.49815642831505

> <actual_activity_value>
4.259637310505756

> <Publication ID>
nan

> <standard_units>
nM

> hash
6423501613014595294

$$$$
13
XXILIB    08252103513D 0   0.00000     0.00000

 21 23  0     1  0            999 V2000
    0.8084   -1.4814   -3.2505 S   0  0  0  0  0  2           0  0  0
    0.0000   -0.0000    0.0000 O   0  0  0  0  0  2           0  0  0
    2.0467    0.0000    1.1796 N   0  0  0  0  0  3           0  0  0
    4.0967   -0.0012   -0.0242 N   0  0  0  0  0  3           0  0  0
    4.0942    0.0014    2.3257 N   0  0  0  0  0  3           0  0  0
    4.1704    0.0202   -2.3758 N   0  0  0  0  0  3           0  0  0
    1.2698   -0.0040   -2.4926 C   0  0  0  0  0  4           0  0  0
    0.0418   -0.6731   -4.5437 C   0  0  0  0  0  4           0  0  0
    1.3861    0.0000    0.0000 C   0  0  0  0  0  4           0  0  0
    3.3935    0.0004    1.1304 C   0  0  0  0  0  4           0  0  0
    3.4213   -0.0195   -1.2008 C   0  0  0  0  0  4           0  0  0
    2.0264   -0.0037   -1.2357 C   0  0  0  0  0  4           0  0  0
    0.8251    1.0774   -3.2371 C   0  0  0  0  0  4           0  0  0
    0.1227    0.6930   -4.4160 C   0  0  0  0  0  4           0  0  0
   -0.6156   -0.0000    1.2897 C   0  0  0  0  0  4           0  0  0
   -2.1307   -0.0000    1.1068 C   0  0  1  0  0  4           0  0  0
   -2.8616   -0.0000    2.4591 C   0  0  0  0  0  4           0  0  0
   -2.5932    1.1902    0.2510 C   0  0  0  0  0  4           0  0  0
   -4.3784    0.0054    2.2775 C   0  0  0  0  0  4           0  0  0
   -4.1098    1.1966    0.0690 C   0  0  0  0  0  4           0  0  0
   -4.8368    1.1734    1.4098 C   0  0  0  0  0  4           0  0  0
  1  7  1  0     0  0
  1  8  1  0     0  0
  2  9  1  0     0  0
  2 15  1  0     0  0
  3  9  2  0     0  0
  3 10  1  0     0  0
  4 10  2  0     0  0
  4 11  1  0     0  0
  5 10  1  0     0  0
  6 11  1  0     0  0
  7 12  1  0     0  0
  7 13  2  0     0  0
  8 14  2  0     0  0
  9 12  1  0     0  0
 11 12  2  0     0  0
 13 14  1  0     0  0
 15 16  1  0     0  0
 16 17  1  0     0  0
 16 18  1  0     0  0
 17 19  1  0     0  0
 18 20  1  0     0  0
 19 21  1  0     0  0
 20 21  1  0     0  0
M  END
> <Compound >
14

> <standard_type>
pIC50

> <# Confs.>
25

> <canonical_smiles>
NC1=NC(N)=C(C2=CC=CS2)C(OCC3CCCCC3)=N1

> <standard_relation>
=

> <predicted_activity_value>
4.49815642831505

> <actual_activity_value>
4.259637310505756

> <Publication ID>
nan

> <standard_units>
nM

> hash
6423501613014595294

$$$$
13
XXILIB    08252103513D 0   0.00000     0.00000

 21 23  0     1  0            999 V2000
    0.8156    1.4730   -3.2556 S   0  0  0  0  0  2           0  0  0
    0.0000   -0.0000    0.0000 O   0  0  0  0  0  2           0  0  0
    2.0467    0.0000    1.1796 N   0  0  0  0  0  3           0  0  0
    4.0967   -0.0012   -0.0242 N   0  0  0  0  0  3           0  0  0
    4.0942    0.0014    2.3257 N   0  0  0  0  0  3           0  0  0
    4.1704    0.0202   -2.3758 N   0  0  0  0  0  3           0  0  0
    1.2698   -0.0040   -2.4926 C   0  0  0  0  0  4           0  0  0
    0.0318    0.6640   -4.5380 C   0  0  0  0  0  4           0  0  0
    1.3861    0.0000    0.0000 C   0  0  0  0  0  4           0  0  0
    3.3935    0.0004    1.1304 C   0  0  0  0  0  4           0  0  0
    3.4213   -0.0195   -1.2008 C   0  0  0  0  0  4           0  0  0
    2.0264   -0.0037   -1.2357 C   0  0  0  0  0  4           0  0  0
    0.8202   -1.0858   -3.2336 C   0  0  0  0  0  4           0  0  0
    0.1070   -0.7021   -4.4063 C   0  0  0  0  0  4           0  0  0
   -0.6156   -0.0000    1.2897 C   0  0  0  0  0  4           0  0  0
   -2.1307   -0.0000    1.1068 C   0  0  1  0  0  4           0  0  0
   -2.6044    1.2385    0.3293 C   0  0  0  0  0  4           0  0  0
   -2.6125   -1.2828    0.4103 C   0  0  0  0  0  4           0  0  0
   -4.1203    1.2373    0.1407 C   0  0  0  0  0  4           0  0  0
   -4.1281   -1.2851    0.2211 C   0  0  0  0  0  4           0  0  0
   -4.6026   -0.0452   -0.5302 C   0  0  0  0  0  4           0  0  0
  1  7  1  0     0  0
  1  8  1  0     0  0
  2  9  1  0     0  0
  2 15  1  0     0  0
  3  9  2  0     0  0
  3 10  1  0     0  0
  4 10  2  0     0  0
  4 11  1  0     0  0
  5 10  1  0     0  0
  6 11  1  0     0  0
  7 12  1  0     0  0
  7 13  2  0     0  0
  8 14  2  0     0  0
  9 12  1  0     0  0
 11 12  2  0     0  0
 13 14  1  0     0  0
 15 16  1  0     0  0
 16 17  1  0     0  0
 16 18  1  0     0  0
 17 19  1  0     0  0
 18 20  1  0     0  0
 19 21  1  0     0  0
 20 21  1  0     0  0
M  END
> <Compound >
14

> <standard_type>
pIC50

> <# Confs.>
25

> <canonical_smiles>
NC1=NC(N)=C(C2=CC=CS2)C(OCC3CCCCC3)=N1

> <standard_relation>
=

> <predicted_activity_value>
4.49815642831505

> <actual_activity_value>
4.259637310505756

> <Publication ID>
nan

> <standard_units>
nM

> hash
6423501613014595294

$$$$
13
XXILIB    08252103513D 0   0.00000     0.00000

 21 23  0     1  0            999 V2000
    0.8156    1.4730   -3.2556 S   0  0  0  0  0  2           0  0  0
    0.0000   -0.0000    0.0000 O   0  0  0  0  0  2           0  0  0
    2.0467    0.0000    1.1796 N   0  0  0  0  0  3           0  0  0
    4.0967   -0.0012   -0.0242 N   0  0  0  0  0  3           0  0  0
    4.0942    0.0014    2.3257 N   0  0  0  0  0  3           0  0  0
    4.1704    0.0202   -2.3758 N   0  0  0  0  0  3           0  0  0
    1.2698   -0.0040   -2.4926 C   0  0  0  0  0  4           0  0  0
    0.0318    0.6640   -4.5380 C   0  0  0  0  0  4           0  0  0
    1.3861    0.0000    0.0000 C   0  0  0  0  0  4           0  0  0
    3.3935    0.0004    1.1304 C   0  0  0  0  0  4           0  0  0
    3.4213   -0.0195   -1.2008 C   0  0  0  0  0  4           0  0  0
    2.0264   -0.0037   -1.2357 C   0  0  0  0  0  4           0  0  0
    0.8202   -1.0858   -3.2336 C   0  0  0  0  0  4           0  0  0
    0.1070   -0.7021   -4.4063 C   0  0  0  0  0  4           0  0  0
   -0.6156   -0.0000    1.2897 C   0  0  0  0  0  4           0  0  0
   -2.1307   -0.0000    1.1068 C   0  0  1  0  0  4           0  0  0
   -2.6044   -1.2385    0.3293 C   0  0  0  0  0  4           0  0  0
   -2.8596    0.0927    2.4569 C   0  0  0  0  0  4           0  0  0
   -4.1215   -1.2427    0.1500 C   0  0  0  0  0  4           0  0  0
   -4.3766    0.0885    2.2788 C   0  0  0  0  0  4           0  0  0
   -4.8462   -1.1282    1.4875 C   0  0  0  0  0  4           0  0  0
  1  7  1  0     0  0
  1  8  1  0     0  0
  2  9  1  0     0  0
  2 15  1  0     0  0
  3  9  2  0     0  0
  3 10  1  0     0  0
  4 10  2  0     0  0
  4 11  1  0     0  0
  5 10  1  0     0  0
  6 11  1  0     0  0
  7 12  1  0     0  0
  7 13  2  0     0  0
  8 14  2  0     0  0
  9 12  1  0     0  0
 11 12  2  0     0  0
 13 14  1  0     0  0
 15 16  1  0     0  0
 16 17  1  0     0  0
 16 18  1  0     0  0
 17 19  1  0     0  0
 18 20  1  0     0  0
 19 21  1  0     0  0
 20 21  1  0     0  0
M  END
> <Compound >
14

> <standard_type>
pIC50

> <# Confs.>
25

> <canonical_smiles>
NC1=NC(N)=C(C2=CC=CS2)C(OCC3CCCCC3)=N1

> <standard_relation>
=

> <predicted_activity_value>
4.49815642831505

> <actual_activity_value>
4.259637310505756

> <Publication ID>
nan

> <standard_units>
nM

> hash
6423501613014595294

$$$$
13
XXILIB    08252103513D 0   0.00000     0.00000

 21 23  0     1  0            999 V2000
    0.8156    1.4730   -3.2556 S   0  0  0  0  0  2           0  0  0
    0.0000   -0.0000    0.0000 O   0  0  0  0  0  2           0  0  0
    2.0467    0.0000    1.1796 N   0  0  0  0  0  3           0  0  0
    4.0967   -0.0012   -0.0242 N   0  0  0  0  0  3           0  0  0
    4.0942    0.0014    2.3257 N   0  0  0  0  0  3           0  0  0
    4.1704    0.0202   -2.3758 N   0  0  0  0  0  3           0  0  0
    1.2698   -0.0040   -2.4926 C   0  0  0  0  0  4           0  0  0
    0.0318    0.6640   -4.5380 C   0  0  0  0  0  4           0  0  0
    1.3861    0.0000    0.0000 C   0  0  0  0  0  4           0  0  0
    3.3935    0.0004    1.1304 C   0  0  0  0  0  4           0  0  0
    3.4213   -0.0195   -1.2008 C   0  0  0  0  0  4           0  0  0
    2.0264   -0.0037   -1.2357 C   0  0  0  0  0  4           0  0  0
    0.8202   -1.0858   -3.2336 C   0  0  0  0  0  4           0  0  0
    0.1070   -0.7021   -4.4063 C   0  0  0  0  0  4           0  0  0
   -0.6156   -0.0000    1.2897 C   0  0  0  0  0  4           0  0  0
   -2.1307   -0.0000    1.1068 C   0  0  1  0  0  4           0  0  0
   -2.8616   -0.0000    2.4591 C   0  0  0  0  0  4           0  0  0
   -2.5932    1.1902    0.2510 C   0  0  0  0  0  4           0  0  0
   -4.3784    0.0054    2.2775 C   0  0  0  0  0  4           0  0  0
   -4.1098    1.1966    0.0690 C   0  0  0  0  0  4           0  0  0
   -4.8368    1.1734    1.4098 C   0  0  0  0  0  4           0  0  0
  1  7  1  0     0  0
  1  8  1  0     0  0
  2  9  1  0     0  0
  2 15  1  0     0  0
  3  9  2  0     0  0
  3 10  1  0     0  0
  4 10  2  0     0  0
  4 11  1  0     0  0
  5 10  1  0     0  0
  6 11  1  0     0  0
  7 12  1  0     0  0
  7 13  2  0     0  0
  8 14  2  0     0  0
  9 12  1  0     0  0
 11 12  2  0     0  0
 13 14  1  0     0  0
 15 16  1  0     0  0
 16 17  1  0     0  0
 16 18  1  0     0  0
 17 19  1  0     0  0
 18 20  1  0     0  0
 19 21  1  0     0  0
 20 21  1  0     0  0
M  END
> <Compound >
14

> <standard_type>
pIC50

> <# Confs.>
25

> <canonical_smiles>
NC1=NC(N)=C(C2=CC=CS2)C(OCC3CCCCC3)=N1

> <standard_relation>
=

> <predicted_activity_value>
4.49815642831505

> <actual_activity_value>
4.259637310505756

> <Publication ID>
nan

> <standard_units>
nM

> hash
6423501613014595294

$$$$
13
XXILIB    08252103513D 0   0.00000     0.00000

 21 23  0     1  0            999 V2000
    0.8084   -1.4814   -3.2505 S   0  0  0  0  0  2           0  0  0
    0.0000   -0.0000    0.0000 O   0  0  0  0  0  2           0  0  0
    2.0467    0.0000    1.1796 N   0  0  0  0  0  3           0  0  0
    4.0967   -0.0012   -0.0242 N   0  0  0  0  0  3           0  0  0
    4.0942    0.0014    2.3257 N   0  0  0  0  0  3           0  0  0
    4.1704    0.0202   -2.3758 N   0  0  0  0  0  3           0  0  0
    1.2698   -0.0040   -2.4926 C   0  0  0  0  0  4           0  0  0
    0.0418   -0.6731   -4.5437 C   0  0  0  0  0  4           0  0  0
    1.3861    0.0000    0.0000 C   0  0  0  0  0  4           0  0  0
    3.3935    0.0004    1.1304 C   0  0  0  0  0  4           0  0  0
    3.4213   -0.0195   -1.2008 C   0  0  0  0  0  4           0  0  0
    2.0264   -0.0037   -1.2357 C   0  0  0  0  0  4           0  0  0
    0.8251    1.0774   -3.2371 C   0  0  0  0  0  4           0  0  0
    0.1227    0.6930   -4.4160 C   0  0  0  0  0  4           0  0  0
   -0.6156   -0.0000    1.2897 C   0  0  0  0  0  4           0  0  0
   -2.1307   -0.0000    1.1068 C   0  0  1  0  0  4           0  0  0
   -2.6307   -1.2315    0.3302 C   0  0  0  0  0  4           0  0  0
   -2.8574    0.1135    2.4553 C   0  0  0  0  0  4           0  0  0
   -2.5666   -2.5194    1.1502 C   0  0  0  0  0  4           0  0  0
   -2.7873   -1.1719    3.2779 C   0  0  0  0  0  4           0  0  0
   -3.2922   -2.3731    2.4844 C   0  0  0  0  0  4           0  0  0
  1  7  1  0     0  0
  1  8  1  0     0  0
  2  9  1  0     0  0
  2 15  1  0     0  0
  3  9  2  0     0  0
  3 10  1  0     0  0
  4 10  2  0     0  0
  4 11  1  0     0  0
  5 10  1  0     0  0
  6 11  1  0     0  0
  7 12  1  0     0  0
  7 13  2  0     0  0
  8 14  2  0     0  0
  9 12  1  0     0  0
 11 12  2  0     0  0
 13 14  1  0     0  0
 15 16  1  0     0  0
 16 17  1  0     0  0
 16 18  1  0     0  0
 17 19  1  0     0  0
 18 20  1  0     0  0
 19 21  1  0     0  0
 20 21  1  0     0  0
M  END
> <Compound >
14

> <standard_type>
pIC50

> <# Confs.>
25

> <canonical_smiles>
NC1=NC(N)=C(C2=CC=CS2)C(OCC3CCCCC3)=N1

> <standard_relation>
=

> <predicted_activity_value>
4.49815642831505

> <actual_activity_value>
4.259637310505756

> <Publication ID>
nan

> <standard_units>
nM

> hash
6423501613014595294

$$$$
13
XXILIB    08252103513D 0   0.00000     0.00000

 21 23  0     1  0            999 V2000
    0.8084   -1.4814   -3.2505 S   0  0  0  0  0  2           0  0  0
    0.0000   -0.0000    0.0000 O   0  0  0  0  0  2           0  0  0
    2.0467    0.0000    1.1796 N   0  0  0  0  0  3           0  0  0
    4.0967   -0.0012   -0.0242 N   0  0  0  0  0  3           0  0  0
    4.0942    0.0014    2.3257 N   0  0  0  0  0  3           0  0  0
    4.1704    0.0202   -2.3758 N   0  0  0  0  0  3           0  0  0
    1.2698   -0.0040   -2.4926 C   0  0  0  0  0  4           0  0  0
    0.0418   -0.6731   -4.5437 C   0  0  0  0  0  4           0  0  0
    1.3861    0.0000    0.0000 C   0  0  0  0  0  4           0  0  0
    3.3935    0.0004    1.1304 C   0  0  0  0  0  4           0  0  0
    3.4213   -0.0195   -1.2008 C   0  0  0  0  0  4           0  0  0
    2.0264   -0.0037   -1.2357 C   0  0  0  0  0  4           0  0  0
    0.8251    1.0774   -3.2371 C   0  0  0  0  0  4           0  0  0
    0.1227    0.6930   -4.4160 C   0  0  0  0  0  4           0  0  0
   -0.6156   -0.0000    1.2897 C   0  0  0  0  0  4           0  0  0
   -2.1307   -0.0000    1.1068 C   0  0  1  0  0  4           0  0  0
   -2.8864   -0.0000    2.4478 C   0  0  0  0  0  4           0  0  0
   -2.5892    1.1781    0.2343 C   0  0  0  0  0  4           0  0  0
   -2.8110    1.3423    3.1743 C   0  0  0  0  0  4           0  0  0
   -2.5072    2.5208    0.9584 C   0  0  0  0  0  4           0  0  0
   -3.2676    2.4916    2.2806 C   0  0  0  0  0  4           0  0  0
  1  7  1  0     0  0
  1  8  1  0     0  0
  2  9  1  0     0  0
  2 15  1  0     0  0
  3  9  2  0     0  0
  3 10  1  0     0  0
  4 10  2  0     0  0
  4 11  1  0     0  0
  5 10  1  0     0  0
  6 11  1  0     0  0
  7 12  1  0     0  0
  7 13  2  0     0  0
  8 14  2  0     0  0
  9 12  1  0     0  0
 11 12  2  0     0  0
 13 14  1  0     0  0
 15 16  1  0     0  0
 16 17  1  0     0  0
 16 18  1  0     0  0
 17 19  1  0     0  0
 18 20  1  0     0  0
 19 21  1  0     0  0
 20 21  1  0     0  0
M  END
> <Compound >
14

> <standard_type>
pIC50

> <# Confs.>
25

> <canonical_smiles>
NC1=NC(N)=C(C2=CC=CS2)C(OCC3CCCCC3)=N1

> <standard_relation>
=

> <predicted_activity_value>
4.49815642831505

> <actual_activity_value>
4.259637310505756

> <Publication ID>
nan

> <standard_units>
nM

> hash
6423501613014595294

$$$$
13
XXILIB    08252103513D 0   0.00000     0.00000

 21 23  0     1  0            999 V2000
    0.8156    1.4730   -3.2556 S   0  0  0  0  0  2           0  0  0
    0.0000   -0.0000    0.0000 O   0  0  0  0  0  2           0  0  0
    2.0467    0.0000    1.1796 N   0  0  0  0  0  3           0  0  0
    4.0967   -0.0012   -0.0242 N   0  0  0  0  0  3           0  0  0
    4.0942    0.0014    2.3257 N   0  0  0  0  0  3           0  0  0
    4.1704    0.0202   -2.3758 N   0  0  0  0  0  3           0  0  0
    1.2698   -0.0040   -2.4926 C   0  0  0  0  0  4           0  0  0
    0.0318    0.6640   -4.5380 C   0  0  0  0  0  4           0  0  0
    1.3861    0.0000    0.0000 C   0  0  0  0  0  4           0  0  0
    3.3935    0.0004    1.1304 C   0  0  0  0  0  4           0  0  0
    3.4213   -0.0195   -1.2008 C   0  0  0  0  0  4           0  0  0
    2.0264   -0.0037   -1.2357 C   0  0  0  0  0  4           0  0  0
    0.8202   -1.0858   -3.2336 C   0  0  0  0  0  4           0  0  0
    0.1070   -0.7021   -4.4063 C   0  0  0  0  0  4           0  0  0
   -0.6156   -0.0000    1.2897 C   0  0  0  0  0  4           0  0  0
   -2.1307   -0.0000    1.1068 C   0  0  1  0  0  4           0  0  0
   -2.6307   -1.2315    0.3302 C   0  0  0  0  0  4           0  0  0
   -2.8574    0.1135    2.4553 C   0  0  0  0  0  4           0  0  0
   -2.5666   -2.5194    1.1502 C   0  0  0  0  0  4           0  0  0
   -2.7873   -1.1719    3.2779 C   0  0  0  0  0  4           0  0  0
   -3.2922   -2.3731    2.4844 C   0  0  0  0  0  4           0  0  0
  1  7  1  0     0  0
  1  8  1  0     0  0
  2  9  1  0     0  0
  2 15  1  0     0  0
  3  9  2  0     0  0
  3 10  1  0     0  0
  4 10  2  0     0  0
  4 11  1  0     0  0
  5 10  1  0     0  0
  6 11  1  0     0  0
  7 12  1  0     0  0
  7 13  2  0     0  0
  8 14  2  0     0  0
  9 12  1  0     0  0
 11 12  2  0     0  0
 13 14  1  0     0  0
 15 16  1  0     0  0
 16 17  1  0     0  0
 16 18  1  0     0  0
 17 19  1  0     0  0
 18 20  1  0     0  0
 19 21  1  0     0  0
 20 21  1  0     0  0
M  END
> <Compound >
14

> <standard_type>
pIC50

> <# Confs.>
25

> <canonical_smiles>
NC1=NC(N)=C(C2=CC=CS2)C(OCC3CCCCC3)=N1

> <standard_relation>
=

> <predicted_activity_value>
4.49815642831505

> <actual_activity_value>
4.259637310505756

> <Publication ID>
nan

> <standard_units>
nM

> hash
6423501613014595294

$$$$
13
XXILIB    08252103513D 0   0.00000     0.00000

 21 23  0     1  0            999 V2000
    0.8156    1.4730   -3.2556 S   0  0  0  0  0  2           0  0  0
    0.0000   -0.0000    0.0000 O   0  0  0  0  0  2           0  0  0
    2.0467    0.0000    1.1796 N   0  0  0  0  0  3           0  0  0
    4.0967   -0.0012   -0.0242 N   0  0  0  0  0  3           0  0  0
    4.0942    0.0014    2.3257 N   0  0  0  0  0  3           0  0  0
    4.1704    0.0202   -2.3758 N   0  0  0  0  0  3           0  0  0
    1.2698   -0.0040   -2.4926 C   0  0  0  0  0  4           0  0  0
    0.0318    0.6640   -4.5380 C   0  0  0  0  0  4           0  0  0
    1.3861    0.0000    0.0000 C   0  0  0  0  0  4           0  0  0
    3.3935    0.0004    1.1304 C   0  0  0  0  0  4           0  0  0
    3.4213   -0.0195   -1.2008 C   0  0  0  0  0  4           0  0  0
    2.0264   -0.0037   -1.2357 C   0  0  0  0  0  4           0  0  0
    0.8202   -1.0858   -3.2336 C   0  0  0  0  0  4           0  0  0
    0.1070   -0.7021   -4.4063 C   0  0  0  0  0  4           0  0  0
   -0.6156   -0.0000    1.2897 C   0  0  0  0  0  4           0  0  0
   -2.1307   -0.0000    1.1068 C   0  0  1  0  0  4           0  0  0
   -2.8864   -0.0000    2.4478 C   0  0  0  0  0  4           0  0  0
   -2.5892    1.1781    0.2343 C   0  0  0  0  0  4           0  0  0
   -2.8110    1.3423    3.1743 C   0  0  0  0  0  4           0  0  0
   -2.5072    2.5208    0.9584 C   0  0  0  0  0  4           0  0  0
   -3.2676    2.4916    2.2806 C   0  0  0  0  0  4           0  0  0
  1  7  1  0     0  0
  1  8  1  0     0  0
  2  9  1  0     0  0
  2 15  1  0     0  0
  3  9  2  0     0  0
  3 10  1  0     0  0
  4 10  2  0     0  0
  4 11  1  0     0  0
  5 10  1  0     0  0
  6 11  1  0     0  0
  7 12  1  0     0  0
  7 13  2  0     0  0
  8 14  2  0     0  0
  9 12  1  0     0  0
 11 12  2  0     0  0
 13 14  1  0     0  0
 15 16  1  0     0  0
 16 17  1  0     0  0
 16 18  1  0     0  0
 17 19  1  0     0  0
 18 20  1  0     0  0
 19 21  1  0     0  0
 20 21  1  0     0  0
M  END
> <Compound >
14

> <standard_type>
pIC50

> <# Confs.>
25

> <canonical_smiles>
NC1=NC(N)=C(C2=CC=CS2)C(OCC3CCCCC3)=N1

> <standard_relation>
=

> <predicted_activity_value>
4.49815642831505

> <actual_activity_value>
4.259637310505756

> <Publication ID>
nan

> <standard_units>
nM

> hash
6423501613014595294

$$$$
13
XXILIB    08252103513D 0   0.00000     0.00000

 21 23  0     1  0            999 V2000
    0.1761   -2.5446   -1.8447 S   0  0  0  0  0  2           0  0  0
    0.0000   -0.0000    0.0000 O   0  0  0  0  0  2           0  0  0
    2.0467    0.5898    1.0215 N   0  0  0  0  0  3           0  0  0
    4.0967   -0.0132   -0.0203 N   0  0  0  0  0  3           0  0  0
    4.0942    1.1641    2.0135 N   0  0  0  0  0  3           0  0  0
    4.1704   -1.1703   -2.0676 N   0  0  0  0  0  3           0  0  0
    1.2698   -1.2498   -2.1566 C   0  0  0  0  0  4           0  0  0
   -0.2453   -2.6933   -3.4921 C   0  0  0  0  0  4           0  0  0
    1.3861    0.0000    0.0000 C   0  0  0  0  0  4           0  0  0
    3.3935    0.5656    0.9788 C   0  0  0  0  0  4           0  0  0
    3.4213   -0.6173   -1.0302 C   0  0  0  0  0  4           0  0  0
    2.0264   -0.6211   -1.0683 C   0  0  0  0  0  4           0  0  0
    1.2881   -0.9517   -3.5103 C   0  0  0  0  0  4           0  0  0
    0.4204   -1.7824   -4.2771 C   0  0  0  0  0  4           0  0  0
   -0.6156   -0.0000    1.2897 C   0  0  0  0  0  4           0  0  0
   -1.9559   -0.7231    1.1902 C   0  0  1  0  0  4           0  0  0
   -2.6774   -0.7617    2.5470 C   0  0  0  0  0  4           0  0  0
   -2.8604   -0.0854    0.1235 C   0  0  0  0  0  4           0  0  0
   -4.0217   -1.4805    2.4478 C   0  0  0  0  0  4           0  0  0
   -4.2049   -0.8033    0.0236 C   0  0  0  0  0  4           0  0  0
   -4.9120   -0.8628    1.3740 C   0  0  0  0  0  4           0  0  0
  1  7  1  0     0  0
  1  8  1  0     0  0
  2  9  1  0     0  0
  2 15  1  0     0  0
  3  9  2  0     0  0
  3 10  1  0     0  0
  4 10  2  0     0  0
  4 11  1  0     0  0
  5 10  1  0     0  0
  6 11  1  0     0  0
  7 12  1  0     0  0
  7 13  2  0     0  0
  8 14  2  0     0  0
  9 12  1  0     0  0
 11 12  2  0     0  0
 13 14  1  0     0  0
 15 16  1  0     0  0
 16 17  1  0     0  0
 16 18  1  0     0  0
 17 19  1  0     0  0
 18 20  1  0     0  0
 19 21  1  0     0  0
 20 21  1  0     0  0
M  END
> <Compound >
14

> <standard_type>
pIC50

> <# Confs.>
25

> <canonical_smiles>
NC1=NC(N)=C(C2=CC=CS2)C(OCC3CCCCC3)=N1

> <standard_relation>
=

> <predicted_activity_value>
4.49815642831505

> <actual_activity_value>
4.259637310505756

> <Publication ID>
nan

> <standard_units>
nM

> hash
6423501613014595294

$$$$
13
XXILIB    08252103513D 0   0.00000     0.00000

 21 23  0     1  0            999 V2000
    0.1761   -1.2813   -2.8699 S   0  0  0  0  0  2           0  0  0
    0.0000   -0.0000    0.0000 O   0  0  0  0  0  2           0  0  0
    2.0467    0.0000    1.1796 N   0  0  0  0  0  3           0  0  0
    4.0967   -0.0012   -0.0242 N   0  0  0  0  0  3           0  0  0
    4.0942    0.0014    2.3257 N   0  0  0  0  0  3           0  0  0
    4.1704    0.0202   -2.3758 N   0  0  0  0  0  3           0  0  0
    1.2698   -0.0040   -2.4926 C   0  0  0  0  0  4           0  0  0
   -0.2453   -0.5864   -4.3709 C   0  0  0  0  0  4           0  0  0
    1.3861    0.0000    0.0000 C   0  0  0  0  0  4           0  0  0
    3.3935    0.0004    1.1304 C   0  0  0  0  0  4           0  0  0
    3.4213   -0.0195   -1.2008 C   0  0  0  0  0  4           0  0  0
    2.0264   -0.0037   -1.2357 C   0  0  0  0  0  4           0  0  0
    1.2881    0.9310   -3.5158 C   0  0  0  0  0  4           0  0  0
    0.4204    0.5949   -4.5953 C   0  0  0  0  0  4           0  0  0
   -0.6156   -0.0000    1.2897 C   0  0  0  0  0  4           0  0  0
   -1.9559   -0.7231    1.1902 C   0  0  1  0  0  4           0  0  0
   -2.8963   -0.0317    0.1900 C   0  0  0  0  0  4           0  0  0
   -1.7699   -2.2014    0.8125 C   0  0  0  0  0  4           0  0  0
   -4.2364   -0.7574    0.0853 C   0  0  0  0  0  4           0  0  0
   -3.1093   -2.9280    0.7074 C   0  0  0  0  0  4           0  0  0
   -4.0523   -2.2302   -0.2676 C   0  0  0  0  0  4           0  0  0
  1  7  1  0     0  0
  1  8  1  0     0  0
  2  9  1  0     0  0
  2 15  1  0     0  0
  3  9  2  0     0  0
  3 10  1  0     0  0
  4 10  2  0     0  0
  4 11  1  0     0  0
  5 10  1  0     0  0
  6 11  1  0     0  0
  7 12  1  0     0  0
  7 13  2  0     0  0
  8 14  2  0     0  0
  9 12  1  0     0  0
 11 12  2  0     0  0
 13 14  1  0     0  0
 15 16  1  0     0  0
 16 17  1  0     0  0
 16 18  1  0     0  0
 17 19  1  0     0  0
 18 20  1  0     0  0
 19 21  1  0     0  0
 20 21  1  0     0  0
M  END
> <Compound >
14

> <standard_type>
pIC50

> <# Confs.>
25

> <canonical_smiles>
NC1=NC(N)=C(C2=CC=CS2)C(OCC3CCCCC3)=N1

> <standard_relation>
=

> <predicted_activity_value>
4.49815642831505

> <actual_activity_value>
4.259637310505756

> <Publication ID>
nan

> <standard_units>
nM

> hash
6423501613014595294

$$$$
13
XXILIB    08252103513D 0   0.00000     0.00000

 21 23  0     1  0            999 V2000
    0.8084   -1.4814   -3.2505 S   0  0  0  0  0  2           0  0  0
    0.0000    0.0000   -0.0000 O   0  0  0  0  0  2           0  0  0
    2.0467    0.0000    1.1796 N   0  0  0  0  0  3           0  0  0
    4.0967   -0.0012   -0.0242 N   0  0  0  0  0  3           0  0  0
    4.0942    0.0014    2.3257 N   0  0  0  0  0  3           0  0  0
    4.1704    0.0202   -2.3758 N   0  0  0  0  0  3           0  0  0
    1.2698   -0.0040   -2.4926 C   0  0  0  0  0  4           0  0  0
    0.0418   -0.6731   -4.5437 C   0  0  0  0  0  4           0  0  0
    1.3861    0.0000    0.0000 C   0  0  0  0  0  4           0  0  0
    3.3935    0.0004    1.1304 C   0  0  0  0  0  4           0  0  0
    3.4213   -0.0195   -1.2008 C   0  0  0  0  0  4           0  0  0
    2.0264   -0.0037   -1.2357 C   0  0  0  0  0  4           0  0  0
    0.8251    1.0774   -3.2371 C   0  0  0  0  0  4           0  0  0
    0.1227    0.6930   -4.4160 C   0  0  0  0  0  4           0  0  0
   -0.6156    0.0000    1.2897 C   0  0  0  0  0  4           0  0  0
   -0.8256    1.4462    1.7297 C   0  0  1  0  0  4           0  0  0
   -1.7290    2.2086    0.7471 C   0  0  0  0  0  4           0  0  0
   -1.4020    1.5224    3.1526 C   0  0  0  0  0  4           0  0  0
   -1.9445    3.6549    1.1890 C   0  0  0  0  0  4           0  0  0
   -1.6180    2.9682    3.5954 C   0  0  0  0  0  4           0  0  0
   -2.4956    3.7329    2.6094 C   0  0  0  0  0  4           0  0  0
  1  7  1  0     0  0
  1  8  1  0     0  0
  2  9  1  0     0  0
  2 15  1  0     0  0
  3  9  2  0     0  0
  3 10  1  0     0  0
  4 10  2  0     0  0
  4 11  1  0     0  0
  5 10  1  0     0  0
  6 11  1  0     0  0
  7 12  1  0     0  0
  7 13  2  0     0  0
  8 14  2  0     0  0
  9 12  1  0     0  0
 11 12  2  0     0  0
 13 14  1  0     0  0
 15 16  1  0     0  0
 16 17  1  0     0  0
 16 18  1  0     0  0
 17 19  1  0     0  0
 18 20  1  0     0  0
 19 21  1  0     0  0
 20 21  1  0     0  0
M  END
> <Compound >
14

> <standard_type>
pIC50

> <# Confs.>
25

> <canonical_smiles>
NC1=NC(N)=C(C2=CC=CS2)C(OCC3CCCCC3)=N1

> <standard_relation>
=

> <predicted_activity_value>
4.49815642831505

> <actual_activity_value>
4.259637310505756

> <Publication ID>
nan

> <standard_units>
nM

> hash
6423501613014595294

$$$$
13
XXILIB    08252103513D 0   0.00000     0.00000

 21 23  0     1  0            999 V2000
    0.8084   -1.4814   -3.2505 S   0  0  0  0  0  2           0  0  0
    0.0000    0.0000    0.0000 O   0  0  0  0  0  2           0  0  0
    2.0467    0.0000    1.1796 N   0  0  0  0  0  3           0  0  0
    4.0967   -0.0012   -0.0242 N   0  0  0  0  0  3           0  0  0
    4.0942    0.0014    2.3257 N   0  0  0  0  0  3           0  0  0
    4.1704    0.0202   -2.3758 N   0  0  0  0  0  3           0  0  0
    1.2698   -0.0040   -2.4926 C   0  0  0  0  0  4           0  0  0
    0.0418   -0.6731   -4.5437 C   0  0  0  0  0  4           0  0  0
    1.3861    0.0000    0.0000 C   0  0  0  0  0  4           0  0  0
    3.3935    0.0004    1.1304 C   0  0  0  0  0  4           0  0  0
    3.4213   -0.0195   -1.2008 C   0  0  0  0  0  4           0  0  0
    2.0264   -0.0037   -1.2357 C   0  0  0  0  0  4           0  0  0
    0.8251    1.0774   -3.2371 C   0  0  0  0  0  4           0  0  0
    0.1227    0.6930   -4.4160 C   0  0  0  0  0  4           0  0  0
   -0.6156    0.0000    1.2897 C   0  0  0  0  0  4           0  0  0
   -0.8256   -1.4462    1.7297 C   0  0  1  0  0  4           0  0  0
   -1.4869   -1.5233    3.1152 C   0  0  0  0  0  4           0  0  0
   -1.6528   -2.2322    0.6999 C   0  0  0  0  0  4           0  0  0
   -1.7026   -2.9703    3.5547 C   0  0  0  0  0  4           0  0  0
   -1.8693   -3.6792    1.1384 C   0  0  0  0  0  4           0  0  0
   -2.5044   -3.7579    2.5231 C   0  0  0  0  0  4           0  0  0
  1  7  1  0     0  0
  1  8  1  0     0  0
  2  9  1  0     0  0
  2 15  1  0     0  0
  3  9  2  0     0  0
  3 10  1  0     0  0
  4 10  2  0     0  0
  4 11  1  0     0  0
  5 10  1  0     0  0
  6 11  1  0     0  0
  7 12  1  0     0  0
  7 13  2  0     0  0
  8 14  2  0     0  0
  9 12  1  0     0  0
 11 12  2  0     0  0
 13 14  1  0     0  0
 15 16  1  0     0  0
 16 17  1  0     0  0
 16 18  1  0     0  0
 17 19  1  0     0  0
 18 20  1  0     0  0
 19 21  1  0     0  0
 20 21  1  0     0  0
M  END
> <Compound >
14

> <standard_type>
pIC50

> <# Confs.>
25

> <canonical_smiles>
NC1=NC(N)=C(C2=CC=CS2)C(OCC3CCCCC3)=N1

> <standard_relation>
=

> <predicted_activity_value>
4.49815642831505

> <actual_activity_value>
4.259637310505756

> <Publication ID>
nan

> <standard_units>
nM

> hash
6423501613014595294

$$$$
13
XXILIB    08252103513D 0   0.00000     0.00000

 21 23  0     1  0            999 V2000
    0.8084   -1.4814   -3.2505 S   0  0  0  0  0  2           0  0  0
    0.0000   -0.0000    0.0000 O   0  0  0  0  0  2           0  0  0
    2.0467    0.0000    1.1796 N   0  0  0  0  0  3           0  0  0
    4.0967   -0.0012   -0.0242 N   0  0  0  0  0  3           0  0  0
    4.0942    0.0014    2.3257 N   0  0  0  0  0  3           0  0  0
    4.1704    0.0202   -2.3758 N   0  0  0  0  0  3           0  0  0
    1.2698   -0.0040   -2.4926 C   0  0  0  0  0  4           0  0  0
    0.0418   -0.6731   -4.5437 C   0  0  0  0  0  4           0  0  0
    1.3861    0.0000    0.0000 C   0  0  0  0  0  4           0  0  0
    3.3935    0.0004    1.1304 C   0  0  0  0  0  4           0  0  0
    3.4213   -0.0195   -1.2008 C   0  0  0  0  0  4           0  0  0
    2.0264   -0.0037   -1.2357 C   0  0  0  0  0  4           0  0  0
    0.8251    1.0774   -3.2371 C   0  0  0  0  0  4           0  0  0
    0.1227    0.6930   -4.4160 C   0  0  0  0  0  4           0  0  0
   -0.6156   -0.0000    1.2897 C   0  0  0  0  0  4           0  0  0
   -2.1307   -0.0000    1.1068 C   0  0  1  0  0  4           0  0  0
   -2.6413    1.2268    0.3317 C   0  0  0  0  0  4           0  0  0
   -2.6611   -1.3078    0.4948 C   0  0  0  0  0  4           0  0  0
   -2.5011    1.1192   -1.1847 C   0  0  0  0  0  4           0  0  0
   -2.5202   -1.3975   -1.0227 C   0  0  0  0  0  4           0  0  0
   -3.1046   -0.1742   -1.7181 C   0  0  0  0  0  4           0  0  0
  1  7  1  0     0  0
  1  8  1  0     0  0
  2  9  1  0     0  0
  2 15  1  0     0  0
  3  9  2  0     0  0
  3 10  1  0     0  0
  4 10  2  0     0  0
  4 11  1  0     0  0
  5 10  1  0     0  0
  6 11  1  0     0  0
  7 12  1  0     0  0
  7 13  2  0     0  0
  8 14  2  0     0  0
  9 12  1  0     0  0
 11 12  2  0     0  0
 13 14  1  0     0  0
 15 16  1  0     0  0
 16 17  1  0     0  0
 16 18  1  0     0  0
 17 19  1  0     0  0
 18 20  1  0     0  0
 19 21  1  0     0  0
 20 21  1  0     0  0
M  END
> <Compound >
14

> <standard_type>
pIC50

> <# Confs.>
25

> <canonical_smiles>
NC1=NC(N)=C(C2=CC=CS2)C(OCC3CCCCC3)=N1

> <standard_relation>
=

> <predicted_activity_value>
4.49815642831505

> <actual_activity_value>
4.259637310505756

> <Publication ID>
nan

> <standard_units>
nM

> hash
6423501613014595294

$$$$
13
XXILIB    08252103513D 0   0.00000     0.00000

 21 23  0     1  0            999 V2000
    0.8156    1.4730   -3.2556 S   0  0  0  0  0  2           0  0  0
    0.0000    0.0000   -0.0000 O   0  0  0  0  0  2           0  0  0
    2.0467    0.0000    1.1796 N   0  0  0  0  0  3           0  0  0
    4.0967   -0.0012   -0.0242 N   0  0  0  0  0  3           0  0  0
    4.0942    0.0014    2.3257 N   0  0  0  0  0  3           0  0  0
    4.1704    0.0202   -2.3758 N   0  0  0  0  0  3           0  0  0
    1.2698   -0.0040   -2.4926 C   0  0  0  0  0  4           0  0  0
    0.0318    0.6640   -4.5380 C   0  0  0  0  0  4           0  0  0
    1.3861    0.0000    0.0000 C   0  0  0  0  0  4           0  0  0
    3.3935    0.0004    1.1304 C   0  0  0  0  0  4           0  0  0
    3.4213   -0.0195   -1.2008 C   0  0  0  0  0  4           0  0  0
    2.0264   -0.0037   -1.2357 C   0  0  0  0  0  4           0  0  0
    0.8202   -1.0858   -3.2336 C   0  0  0  0  0  4           0  0  0
    0.1070   -0.7021   -4.4063 C   0  0  0  0  0  4           0  0  0
   -0.6156    0.0000    1.2897 C   0  0  0  0  0  4           0  0  0
   -0.8256    1.4462    1.7297 C   0  0  1  0  0  4           0  0  0
   -1.7290    2.2086    0.7471 C   0  0  0  0  0  4           0  0  0
   -1.4020    1.5224    3.1526 C   0  0  0  0  0  4           0  0  0
   -1.9445    3.6549    1.1890 C   0  0  0  0  0  4           0  0  0
   -1.6180    2.9682    3.5954 C   0  0  0  0  0  4           0  0  0
   -2.4956    3.7329    2.6094 C   0  0  0  0  0  4           0  0  0
  1  7  1  0     0  0
  1  8  1  0     0  0
  2  9  1  0     0  0
  2 15  1  0     0  0
  3  9  2  0     0  0
  3 10  1  0     0  0
  4 10  2  0     0  0
  4 11  1  0     0  0
  5 10  1  0     0  0
  6 11  1  0     0  0
  7 12  1  0     0  0
  7 13  2  0     0  0
  8 14  2  0     0  0
  9 12  1  0     0  0
 11 12  2  0     0  0
 13 14  1  0     0  0
 15 16  1  0     0  0
 16 17  1  0     0  0
 16 18  1  0     0  0
 17 19  1  0     0  0
 18 20  1  0     0  0
 19 21  1  0     0  0
 20 21  1  0     0  0
M  END
> <Compound >
14

> <standard_type>
pIC50

> <# Confs.>
25

> <canonical_smiles>
NC1=NC(N)=C(C2=CC=CS2)C(OCC3CCCCC3)=N1

> <standard_relation>
=

> <predicted_activity_value>
4.49815642831505

> <actual_activity_value>
4.259637310505756

> <Publication ID>
nan

> <standard_units>
nM

> hash
6423501613014595294

$$$$
13
XXILIB    08252103513D 0   0.00000     0.00000

 21 23  0     1  0            999 V2000
    0.8084   -2.9082   -2.0743 S   0  0  0  0  0  2           0  0  0
    0.0000    0.0000   -0.0000 O   0  0  0  0  0  2           0  0  0
    2.0467    0.5898    1.0215 N   0  0  0  0  0  3           0  0  0
    4.0967   -0.0132   -0.0203 N   0  0  0  0  0  3           0  0  0
    4.0942    1.1641    2.0135 N   0  0  0  0  0  3           0  0  0
    4.1704   -1.1703   -2.0676 N   0  0  0  0  0  3           0  0  0
    1.2698   -1.2498   -2.1566 C   0  0  0  0  0  4           0  0  0
    0.0418   -2.8548   -3.5984 C   0  0  0  0  0  4           0  0  0
    1.3861    0.0000    0.0000 C   0  0  0  0  0  4           0  0  0
    3.3935    0.5656    0.9788 C   0  0  0  0  0  4           0  0  0
    3.4213   -0.6173   -1.0302 C   0  0  0  0  0  4           0  0  0
    2.0264   -0.6211   -1.0683 C   0  0  0  0  0  4           0  0  0
    0.8251   -0.6855   -3.3421 C   0  0  0  0  0  4           0  0  0
    0.1227   -1.6079   -4.1709 C   0  0  0  0  0  4           0  0  0
   -0.6156   -0.0000    1.2897 C   0  0  0  0  0  4           0  0  0
   -1.9559    0.7231    1.1902 C   0  0  1  0  0  4           0  0  0
   -2.8963    0.0317    0.1900 C   0  0  0  0  0  4           0  0  0
   -2.6337    0.8415    2.5647 C   0  0  0  0  0  4           0  0  0
   -4.2403    0.7513    0.0933 C   0  0  0  0  0  4           0  0  0
   -3.9778    1.5607    2.4691 C   0  0  0  0  0  4           0  0  0
   -4.9040    0.8894    1.4599 C   0  0  0  0  0  4           0  0  0
  1  7  1  0     0  0
  1  8  1  0     0  0
  2  9  1  0     0  0
  2 15  1  0     0  0
  3  9  2  0     0  0
  3 10  1  0     0  0
  4 10  2  0     0  0
  4 11  1  0     0  0
  5 10  1  0     0  0
  6 11  1  0     0  0
  7 12  1  0     0  0
  7 13  2  0     0  0
  8 14  2  0     0  0
  9 12  1  0     0  0
 11 12  2  0     0  0
 13 14  1  0     0  0
 15 16  1  0     0  0
 16 17  1  0     0  0
 16 18  1  0     0  0
 17 19  1  0     0  0
 18 20  1  0     0  0
 19 21  1  0     0  0
 20 21  1  0     0  0
M  END
> <Compound >
14

> <standard_type>
pIC50

> <# Confs.>
25

> <canonical_smiles>
NC1=NC(N)=C(C2=CC=CS2)C(OCC3CCCCC3)=N1

> <standard_relation>
=

> <predicted_activity_value>
4.49815642831505

> <actual_activity_value>
4.259637310505756

> <Publication ID>
nan

> <standard_units>
nM

> hash
6423501613014595294

$$$$
13
XXILIB    08252103513D 0   0.00000     0.00000

 21 23  0     1  0            999 V2000
    0.8084   -2.9082   -2.0743 S   0  0  0  0  0  2           0  0  0
    0.0000    0.0000   -0.0000 O   0  0  0  0  0  2           0  0  0
    2.0467    0.5898    1.0215 N   0  0  0  0  0  3           0  0  0
    4.0967   -0.0132   -0.0203 N   0  0  0  0  0  3           0  0  0
    4.0942    1.1641    2.0135 N   0  0  0  0  0  3           0  0  0
    4.1704   -1.1703   -2.0676 N   0  0  0  0  0  3           0  0  0
    1.2698   -1.2498   -2.1566 C   0  0  0  0  0  4           0  0  0
    0.0418   -2.8548   -3.5984 C   0  0  0  0  0  4           0  0  0
    1.3861    0.0000    0.0000 C   0  0  0  0  0  4           0  0  0
    3.3935    0.5656    0.9788 C   0  0  0  0  0  4           0  0  0
    3.4213   -0.6173   -1.0302 C   0  0  0  0  0  4           0  0  0
    2.0264   -0.6211   -1.0683 C   0  0  0  0  0  4           0  0  0
    0.8251   -0.6855   -3.3421 C   0  0  0  0  0  4           0  0  0
    0.1227   -1.6079   -4.1709 C   0  0  0  0  0  4           0  0  0
   -0.6156   -0.0000    1.2897 C   0  0  0  0  0  4           0  0  0
   -1.9559    0.7231    1.1902 C   0  0  1  0  0  4           0  0  0
   -1.7785    2.1769    0.7235 C   0  0  0  0  0  4           0  0  0
   -2.9276   -0.0205    0.2599 C   0  0  0  0  0  4           0  0  0
   -3.1198    2.9005    0.6183 C   0  0  0  0  0  4           0  0  0
   -4.2691    0.7023    0.1539 C   0  0  0  0  0  4           0  0  0
   -4.0931    2.1519   -0.2870 C   0  0  0  0  0  4           0  0  0
  1  7  1  0     0  0
  1  8  1  0     0  0
  2  9  1  0     0  0
  2 15  1  0     0  0
  3  9  2  0     0  0
  3 10  1  0     0  0
  4 10  2  0     0  0
  4 11  1  0     0  0
  5 10  1  0     0  0
  6 11  1  0     0  0
  7 12  1  0     0  0
  7 13  2  0     0  0
  8 14  2  0     0  0
  9 12  1  0     0  0
 11 12  2  0     0  0
 13 14  1  0     0  0
 15 16  1  0     0  0
 16 17  1  0     0  0
 16 18  1  0     0  0
 17 19  1  0     0  0
 18 20  1  0     0  0
 19 21  1  0     0  0
 20 21  1  0     0  0
M  END
> <Compound >
14

> <standard_type>
pIC50

> <# Confs.>
25

> <canonical_smiles>
NC1=NC(N)=C(C2=CC=CS2)C(OCC3CCCCC3)=N1

> <standard_relation>
=

> <predicted_activity_value>
4.49815642831505

> <actual_activity_value>
4.259637310505756

> <Publication ID>
nan

> <standard_units>
nM

> hash
6423501613014595294

$$$$
13
XXILIB    08252103513D 0   0.00000     0.00000

 21 23  0     1  0            999 V2000
    0.1824    2.5433   -1.8506 S   0  0  0  0  0  2           0  0  0
    0.0000    0.0000   -0.0000 O   0  0  0  0  0  2           0  0  0
    2.0467   -0.5898    1.0215 N   0  0  0  0  0  3           0  0  0
    4.0967    0.0110   -0.0216 N   0  0  0  0  0  3           0  0  0
    4.0942   -1.1617    2.0148 N   0  0  0  0  0  3           0  0  0
    4.1704    1.2054   -2.0473 N   0  0  0  0  0  3           0  0  0
    1.2698    1.2428   -2.1607 C   0  0  0  0  0  4           0  0  0
   -0.2539    2.6779   -3.4953 C   0  0  0  0  0  4           0  0  0
    1.3861   -0.0000    0.0000 C   0  0  0  0  0  4           0  0  0
    3.3935   -0.5649    0.9792 C   0  0  0  0  0  4           0  0  0
    3.4213    0.5836   -1.0497 C   0  0  0  0  0  4           0  0  0
    2.0264    0.6146   -1.0720 C   0  0  0  0  0  4           0  0  0
    1.2839    0.9402   -3.5134 C   0  0  0  0  0  4           0  0  0
    0.4069    1.7623   -4.2789 C   0  0  0  0  0  4           0  0  0
   -0.6156   -0.0000    1.2897 C   0  0  0  0  0  4           0  0  0
   -1.9559    0.7231    1.1902 C   0  0  1  0  0  4           0  0  0
   -2.8963    0.0317    0.1900 C   0  0  0  0  0  4           0  0  0
   -2.6337    0.8415    2.5647 C   0  0  0  0  0  4           0  0  0
   -4.2403    0.7513    0.0933 C   0  0  0  0  0  4           0  0  0
   -3.9778    1.5607    2.4691 C   0  0  0  0  0  4           0  0  0
   -4.9040    0.8894    1.4599 C   0  0  0  0  0  4           0  0  0
  1  7  1  0     0  0
  1  8  1  0     0  0
  2  9  1  0     0  0
  2 15  1  0     0  0
  3  9  2  0     0  0
  3 10  1  0     0  0
  4 10  2  0     0  0
  4 11  1  0     0  0
  5 10  1  0     0  0
  6 11  1  0     0  0
  7 12  1  0     0  0
  7 13  2  0     0  0
  8 14  2  0     0  0
  9 12  1  0     0  0
 11 12  2  0     0  0
 13 14  1  0     0  0
 15 16  1  0     0  0
 16 17  1  0     0  0
 16 18  1  0     0  0
 17 19  1  0     0  0
 18 20  1  0     0  0
 19 21  1  0     0  0
 20 21  1  0     0  0
M  END
> <Compound >
14

> <standard_type>
pIC50

> <# Confs.>
25

> <canonical_smiles>
NC1=NC(N)=C(C2=CC=CS2)C(OCC3CCCCC3)=N1

> <standard_relation>
=

> <predicted_activity_value>
4.49815642831505

> <actual_activity_value>
4.259637310505756

> <Publication ID>
nan

> <standard_units>
nM

> hash
6423501613014595294

$$$$
13
XXILIB    08252103513D 0   0.00000     0.00000

 21 23  0     1  0            999 V2000
    0.8084   -2.9082   -2.0743 S   0  0  0  0  0  2           0  0  0
    0.0000    0.0000   -0.0000 O   0  0  0  0  0  2           0  0  0
    2.0467    0.5898    1.0215 N   0  0  0  0  0  3           0  0  0
    4.0967   -0.0132   -0.0203 N   0  0  0  0  0  3           0  0  0
    4.0942    1.1641    2.0135 N   0  0  0  0  0  3           0  0  0
    4.1704   -1.1703   -2.0676 N   0  0  0  0  0  3           0  0  0
    1.2698   -1.2498   -2.1566 C   0  0  0  0  0  4           0  0  0
    0.0418   -2.8548   -3.5984 C   0  0  0  0  0  4           0  0  0
    1.3861    0.0000    0.0000 C   0  0  0  0  0  4           0  0  0
    3.3935    0.5656    0.9788 C   0  0  0  0  0  4           0  0  0
    3.4213   -0.6173   -1.0302 C   0  0  0  0  0  4           0  0  0
    2.0264   -0.6211   -1.0683 C   0  0  0  0  0  4           0  0  0
    0.8251   -0.6855   -3.3421 C   0  0  0  0  0  4           0  0  0
    0.1227   -1.6079   -4.1709 C   0  0  0  0  0  4           0  0  0
   -0.6156   -0.0000    1.2897 C   0  0  0  0  0  4           0  0  0
   -1.9559    0.7231    1.1902 C   0  0  1  0  0  4           0  0  0
   -2.6774    0.7617    2.5470 C   0  0  0  0  0  4           0  0  0
   -1.7863    2.1468    0.6362 C   0  0  0  0  0  4           0  0  0
   -4.0168    1.4898    2.4501 C   0  0  0  0  0  4           0  0  0
   -3.1250    2.8759    0.5391 C   0  0  0  0  0  4           0  0  0
   -3.8530    2.8951    1.8794 C   0  0  0  0  0  4           0  0  0
  1  7  1  0     0  0
  1  8  1  0     0  0
  2  9  1  0     0  0
  2 15  1  0     0  0
  3  9  2  0     0  0
  3 10  1  0     0  0
  4 10  2  0     0  0
  4 11  1  0     0  0
  5 10  1  0     0  0
  6 11  1  0     0  0
  7 12  1  0     0  0
  7 13  2  0     0  0
  8 14  2  0     0  0
  9 12  1  0     0  0
 11 12  2  0     0  0
 13 14  1  0     0  0
 15 16  1  0     0  0
 16 17  1  0     0  0
 16 18  1  0     0  0
 17 19  1  0     0  0
 18 20  1  0     0  0
 19 21  1  0     0  0
 20 21  1  0     0  0
M  END
> <Compound >
14

> <standard_type>
pIC50

> <# Confs.>
25

> <canonical_smiles>
NC1=NC(N)=C(C2=CC=CS2)C(OCC3CCCCC3)=N1

> <standard_relation>
=

> <predicted_activity_value>
4.49815642831505

> <actual_activity_value>
4.259637310505756

> <Publication ID>
nan

> <standard_units>
nM

> hash
6423501613014595294

$$$$
13
XXILIB    08252103513D 0   0.00000     0.00000

 21 23  0     1  0            999 V2000
    0.8084    0.3423   -3.5557 S   0  0  0  0  0  2           0  0  0
    0.0000   -0.0000    0.0000 O   0  0  0  0  0  2           0  0  0
    2.0467   -0.5898    1.0215 N   0  0  0  0  0  3           0  0  0
    4.0967    0.0110   -0.0216 N   0  0  0  0  0  3           0  0  0
    4.0942   -1.1617    2.0148 N   0  0  0  0  0  3           0  0  0
    4.1704    1.2054   -2.0473 N   0  0  0  0  0  3           0  0  0
    1.2698    1.2428   -2.1607 C   0  0  0  0  0  4           0  0  0
    0.0418    1.6889   -4.2715 C   0  0  0  0  0  4           0  0  0
    1.3861   -0.0000    0.0000 C   0  0  0  0  0  4           0  0  0
    3.3935   -0.5649    0.9792 C   0  0  0  0  0  4           0  0  0
    3.4213    0.5836   -1.0497 C   0  0  0  0  0  4           0  0  0
    2.0264    0.6146   -1.0720 C   0  0  0  0  0  4           0  0  0
    0.8251    2.5516   -2.2648 C   0  0  0  0  0  4           0  0  0
    0.1227    2.8082   -3.4779 C   0  0  0  0  0  4           0  0  0
   -0.6156   -0.0000    1.2897 C   0  0  0  0  0  4           0  0  0
   -1.9559   -0.7231    1.1902 C   0  0  1  0  0  4           0  0  0
   -1.7785   -2.1769    0.7235 C   0  0  0  0  0  4           0  0  0
   -2.7174   -0.6810    2.5248 C   0  0  0  0  0  4           0  0  0
   -3.1188   -2.9036    0.6285 C   0  0  0  0  0  4           0  0  0
   -4.0576   -1.4075    2.4310 C   0  0  0  0  0  4           0  0  0
   -3.8858   -2.8435    1.9459 C   0  0  0  0  0  4           0  0  0
  1  7  1  0     0  0
  1  8  1  0     0  0
  2  9  1  0     0  0
  2 15  1  0     0  0
  3  9  2  0     0  0
  3 10  1  0     0  0
  4 10  2  0     0  0
  4 11  1  0     0  0
  5 10  1  0     0  0
  6 11  1  0     0  0
  7 12  1  0     0  0
  7 13  2  0     0  0
  8 14  2  0     0  0
  9 12  1  0     0  0
 11 12  2  0     0  0
 13 14  1  0     0  0
 15 16  1  0     0  0
 16 17  1  0     0  0
 16 18  1  0     0  0
 17 19  1  0     0  0
 18 20  1  0     0  0
 19 21  1  0     0  0
 20 21  1  0     0  0
M  END
> <Compound >
14

> <standard_type>
pIC50

> <# Confs.>
25

> <canonical_smiles>
NC1=NC(N)=C(C2=CC=CS2)C(OCC3CCCCC3)=N1

> <standard_relation>
=

> <predicted_activity_value>
4.49815642831505

> <actual_activity_value>
4.259637310505756

> <Publication ID>
nan

> <standard_units>
nM

> hash
6423501613014595294

$$$$
13
XXILIB    08252103513D 0   0.00000     0.00000

 21 23  0     1  0            999 V2000
    0.8084    0.3423   -3.5557 S   0  0  0  0  0  2           0  0  0
    0.0000    0.0000   -0.0000 O   0  0  0  0  0  2           0  0  0
    2.0467   -0.5898    1.0215 N   0  0  0  0  0  3           0  0  0
    4.0967    0.0110   -0.0216 N   0  0  0  0  0  3           0  0  0
    4.0942   -1.1617    2.0148 N   0  0  0  0  0  3           0  0  0
    4.1704    1.2054   -2.0473 N   0  0  0  0  0  3           0  0  0
    1.2698    1.2428   -2.1607 C   0  0  0  0  0  4           0  0  0
    0.0418    1.6889   -4.2715 C   0  0  0  0  0  4           0  0  0
    1.3861   -0.0000    0.0000 C   0  0  0  0  0  4           0  0  0
    3.3935   -0.5649    0.9792 C   0  0  0  0  0  4           0  0  0
    3.4213    0.5836   -1.0497 C   0  0  0  0  0  4           0  0  0
    2.0264    0.6146   -1.0720 C   0  0  0  0  0  4           0  0  0
    0.8251    2.5516   -2.2648 C   0  0  0  0  0  4           0  0  0
    0.1227    2.8082   -3.4779 C   0  0  0  0  0  4           0  0  0
   -0.6156    0.0000    1.2897 C   0  0  0  0  0  4           0  0  0
   -0.8256    1.4462    1.7297 C   0  0  1  0  0  4           0  0  0
   -1.7290    2.2086    0.7471 C   0  0  0  0  0  4           0  0  0
   -1.4020    1.5224    3.1526 C   0  0  0  0  0  4           0  0  0
   -1.9445    3.6549    1.1890 C   0  0  0  0  0  4           0  0  0
   -1.6180    2.9682    3.5954 C   0  0  0  0  0  4           0  0  0
   -2.4956    3.7329    2.6094 C   0  0  0  0  0  4           0  0  0
  1  7  1  0     0  0
  1  8  1  0     0  0
  2  9  1  0     0  0
  2 15  1  0     0  0
  3  9  2  0     0  0
  3 10  1  0     0  0
  4 10  2  0     0  0
  4 11  1  0     0  0
  5 10  1  0     0  0
  6 11  1  0     0  0
  7 12  1  0     0  0
  7 13  2  0     0  0
  8 14  2  0     0  0
  9 12  1  0     0  0
 11 12  2  0     0  0
 13 14  1  0     0  0
 15 16  1  0     0  0
 16 17  1  0     0  0
 16 18  1  0     0  0
 17 19  1  0     0  0
 18 20  1  0     0  0
 19 21  1  0     0  0
 20 21  1  0     0  0
M  END
> <Compound >
14

> <standard_type>
pIC50

> <# Confs.>
25

> <canonical_smiles>
NC1=NC(N)=C(C2=CC=CS2)C(OCC3CCCCC3)=N1

> <standard_relation>
=

> <predicted_activity_value>
4.49815642831505

> <actual_activity_value>
4.259637310505756

> <Publication ID>
nan

> <standard_units>
nM

> hash
6423501613014595294

$$$$
13
XXILIB    08252103513D 0   0.00000     0.00000

 21 23  0     1  0            999 V2000
    0.8156    1.4730   -3.2556 S   0  0  0  0  0  2           0  0  0
    0.0000    0.0000    0.0000 O   0  0  0  0  0  2           0  0  0
    2.0467    0.0000    1.1796 N   0  0  0  0  0  3           0  0  0
    4.0967   -0.0012   -0.0242 N   0  0  0  0  0  3           0  0  0
    4.0942    0.0014    2.3257 N   0  0  0  0  0  3           0  0  0
    4.1704    0.0202   -2.3758 N   0  0  0  0  0  3           0  0  0
    1.2698   -0.0040   -2.4926 C   0  0  0  0  0  4           0  0  0
    0.0318    0.6640   -4.5380 C   0  0  0  0  0  4           0  0  0
    1.3861    0.0000    0.0000 C   0  0  0  0  0  4           0  0  0
    3.3935    0.0004    1.1304 C   0  0  0  0  0  4           0  0  0
    3.4213   -0.0195   -1.2008 C   0  0  0  0  0  4           0  0  0
    2.0264   -0.0037   -1.2357 C   0  0  0  0  0  4           0  0  0
    0.8202   -1.0858   -3.2336 C   0  0  0  0  0  4           0  0  0
    0.1070   -0.7021   -4.4063 C   0  0  0  0  0  4           0  0  0
   -0.6156    0.0000    1.2897 C   0  0  0  0  0  4           0  0  0
   -0.8256   -1.4462    1.7297 C   0  0  1  0  0  4           0  0  0
   -1.4869   -1.5233    3.1152 C   0  0  0  0  0  4           0  0  0
   -1.6528   -2.2322    0.6999 C   0  0  0  0  0  4           0  0  0
   -1.7026   -2.9703    3.5547 C   0  0  0  0  0  4           0  0  0
   -1.8693   -3.6792    1.1384 C   0  0  0  0  0  4           0  0  0
   -2.5044   -3.7579    2.5231 C   0  0  0  0  0  4           0  0  0
  1  7  1  0     0  0
  1  8  1  0     0  0
  2  9  1  0     0  0
  2 15  1  0     0  0
  3  9  2  0     0  0
  3 10  1  0     0  0
  4 10  2  0     0  0
  4 11  1  0     0  0
  5 10  1  0     0  0
  6 11  1  0     0  0
  7 12  1  0     0  0
  7 13  2  0     0  0
  8 14  2  0     0  0
  9 12  1  0     0  0
 11 12  2  0     0  0
 13 14  1  0     0  0
 15 16  1  0     0  0
 16 17  1  0     0  0
 16 18  1  0     0  0
 17 19  1  0     0  0
 18 20  1  0     0  0
 19 21  1  0     0  0
 20 21  1  0     0  0
M  END
> <Compound >
14

> <standard_type>
pIC50

> <# Confs.>
25

> <canonical_smiles>
NC1=NC(N)=C(C2=CC=CS2)C(OCC3CCCCC3)=N1

> <standard_relation>
=

> <predicted_activity_value>
4.49815642831505

> <actual_activity_value>
4.259637310505756

> <Publication ID>
nan

> <standard_units>
nM

> hash
6423501613014595294

$$$$
13
XXILIB    08252103513D 0   0.00000     0.00000

 21 23  0     1  0            999 V2000
    0.8084    0.3423   -3.5557 S   0  0  0  0  0  2           0  0  0
    0.0000   -0.0000    0.0000 O   0  0  0  0  0  2           0  0  0
    2.0467   -0.5898    1.0215 N   0  0  0  0  0  3           0  0  0
    4.0967    0.0110   -0.0216 N   0  0  0  0  0  3           0  0  0
    4.0942   -1.1617    2.0148 N   0  0  0  0  0  3           0  0  0
    4.1704    1.2054   -2.0473 N   0  0  0  0  0  3           0  0  0
    1.2698    1.2428   -2.1607 C   0  0  0  0  0  4           0  0  0
    0.0418    1.6889   -4.2715 C   0  0  0  0  0  4           0  0  0
    1.3861   -0.0000    0.0000 C   0  0  0  0  0  4           0  0  0
    3.3935   -0.5649    0.9792 C   0  0  0  0  0  4           0  0  0
    3.4213    0.5836   -1.0497 C   0  0  0  0  0  4           0  0  0
    2.0264    0.6146   -1.0720 C   0  0  0  0  0  4           0  0  0
    0.8251    2.5516   -2.2648 C   0  0  0  0  0  4           0  0  0
    0.1227    2.8082   -3.4779 C   0  0  0  0  0  4           0  0  0
   -0.6156   -0.0000    1.2897 C   0  0  0  0  0  4           0  0  0
   -1.9559   -0.7231    1.1902 C   0  0  1  0  0  4           0  0  0
   -2.6774   -0.7617    2.5470 C   0  0  0  0  0  4           0  0  0
   -2.8604   -0.0854    0.1235 C   0  0  0  0  0  4           0  0  0
   -4.0217   -1.4805    2.4478 C   0  0  0  0  0  4           0  0  0
   -4.2049   -0.8033    0.0236 C   0  0  0  0  0  4           0  0  0
   -4.9120   -0.8628    1.3740 C   0  0  0  0  0  4           0  0  0
  1  7  1  0     0  0
  1  8  1  0     0  0
  2  9  1  0     0  0
  2 15  1  0     0  0
  3  9  2  0     0  0
  3 10  1  0     0  0
  4 10  2  0     0  0
  4 11  1  0     0  0
  5 10  1  0     0  0
  6 11  1  0     0  0
  7 12  1  0     0  0
  7 13  2  0     0  0
  8 14  2  0     0  0
  9 12  1  0     0  0
 11 12  2  0     0  0
 13 14  1  0     0  0
 15 16  1  0     0  0
 16 17  1  0     0  0
 16 18  1  0     0  0
 17 19  1  0     0  0
 18 20  1  0     0  0
 19 21  1  0     0  0
 20 21  1  0     0  0
M  END
> <Compound >
14

> <standard_type>
pIC50

> <# Confs.>
25

> <canonical_smiles>
NC1=NC(N)=C(C2=CC=CS2)C(OCC3CCCCC3)=N1

> <standard_relation>
=

> <predicted_activity_value>
4.49815642831505

> <actual_activity_value>
4.259637310505756

> <Publication ID>
nan

> <standard_units>
nM

> hash
6423501613014595294

$$$$
13
XXILIB    08252103513D 0   0.00000     0.00000

 21 23  0     1  0            999 V2000
    0.8156    2.9034   -2.0829 S   0  0  0  0  0  2           0  0  0
    0.0000   -0.0000    0.0000 O   0  0  0  0  0  2           0  0  0
    2.0467   -0.5898    1.0215 N   0  0  0  0  0  3           0  0  0
    4.0967    0.0110   -0.0216 N   0  0  0  0  0  3           0  0  0
    4.0942   -1.1617    2.0148 N   0  0  0  0  0  3           0  0  0
    4.1704    1.2054   -2.0473 N   0  0  0  0  0  3           0  0  0
    1.2698    1.2428   -2.1607 C   0  0  0  0  0  4           0  0  0
    0.0318    2.8440   -3.5980 C   0  0  0  0  0  4           0  0  0
    1.3861   -0.0000    0.0000 C   0  0  0  0  0  4           0  0  0
    3.3935   -0.5649    0.9792 C   0  0  0  0  0  4           0  0  0
    3.4213    0.5836   -1.0497 C   0  0  0  0  0  4           0  0  0
    2.0264    0.6146   -1.0720 C   0  0  0  0  0  4           0  0  0
    0.8202    0.6765   -3.3433 C   0  0  0  0  0  4           0  0  0
    0.1070    1.5951   -4.1670 C   0  0  0  0  0  4           0  0  0
   -0.6156   -0.0000    1.2897 C   0  0  0  0  0  4           0  0  0
   -1.9559   -0.7231    1.1902 C   0  0  1  0  0  4           0  0  0
   -2.8963   -0.0317    0.1900 C   0  0  0  0  0  4           0  0  0
   -1.7699   -2.2014    0.8125 C   0  0  0  0  0  4           0  0  0
   -4.2364   -0.7574    0.0853 C   0  0  0  0  0  4           0  0  0
   -3.1093   -2.9280    0.7074 C   0  0  0  0  0  4           0  0  0
   -4.0523   -2.2302   -0.2676 C   0  0  0  0  0  4           0  0  0
  1  7  1  0     0  0
  1  8  1  0     0  0
  2  9  1  0     0  0
  2 15  1  0     0  0
  3  9  2  0     0  0
  3 10  1  0     0  0
  4 10  2  0     0  0
  4 11  1  0     0  0
  5 10  1  0     0  0
  6 11  1  0     0  0
  7 12  1  0     0  0
  7 13  2  0     0  0
  8 14  2  0     0  0
  9 12  1  0     0  0
 11 12  2  0     0  0
 13 14  1  0     0  0
 15 16  1  0     0  0
 16 17  1  0     0  0
 16 18  1  0     0  0
 17 19  1  0     0  0
 18 20  1  0     0  0
 19 21  1  0     0  0
 20 21  1  0     0  0
M  END
> <Compound >
14

> <standard_type>
pIC50

> <# Confs.>
25

> <canonical_smiles>
NC1=NC(N)=C(C2=CC=CS2)C(OCC3CCCCC3)=N1

> <standard_relation>
=

> <predicted_activity_value>
4.49815642831505

> <actual_activity_value>
4.259637310505756

> <Publication ID>
nan

> <standard_units>
nM

> hash
6423501613014595294

$$$$
