MolPort-005-026-477
XX    ILIB07022204093D

 46 49  0  0  1  0              1 V2000
   -5.2402   -1.5771   -1.6899 S   0  0  0  0  0
   -3.0518    1.7266    1.1299 O   0  0  0  0  0
   -3.0410   -0.6521   -0.7505 N   0  0  0  0  0
   -2.5869   -1.8325   -2.5898 N   0  0  0  0  0
   -0.4963    0.5510    4.2129 N   0  0  0  0  0
   -0.0794   -1.6704    2.6299 N   0  0  0  0  0
   -3.9873    0.1390    2.5176 N   0  0  0  0  0
   -3.5137   -1.4087   -1.7778 C   0  0  0  0  0
   -5.2227   -0.5828   -0.2226 C   0  0  0  0  0
   -1.4238   -1.3091   -2.0430 C   0  0  0  0  0
   -3.9893   -0.1832    0.1274 C   0  0  0  0  0
   -1.5107   -0.3173    3.9980 C   0  0  0  0  0
   -1.6904   -0.5715   -0.8962 C   0  0  0  0  0
   -1.2876   -1.4175    3.1855 C   0  0  0  0  0
    0.7061    0.2897    3.6494 C   0  0  0  0  0
    0.9402   -0.8169    2.8604 C   0  0  0  0  0
   -0.1486   -1.5479   -2.6484 C   0  0  0  0  0
    2.2832   -2.0273   -3.8496 C   0  0  0  0  0
   -0.0991   -2.3252   -3.8135 C   0  0  0  0  0
    0.9910   -0.9810   -2.0469 C   0  0  0  0  0
    1.1318   -2.5771   -4.4160 C   0  0  0  0  0
    2.2109   -1.2485   -2.6846 C   0  0  0  0  0
   -3.6182    0.6462    1.2803 C   0  0  0  0  0
   -3.7334    0.8435    3.7422 C   0  0  2  0  0
   -2.8184   -0.0165    4.6348 C   0  0  0  0  0
    3.6113   -2.2588   -4.4727 C   0  0  0  0  0
   -5.0586    1.1157    4.4551 C   0  0  0  0  0
   -4.4519   -0.7558    2.5784 H   0  0  0  0  0
   -6.1214   -0.3652    0.2749 H   0  0  0  0  0
   -1.1190   -0.0284   -0.2026 H   0  0  0  0  0
   -2.0940   -2.0655    3.0059 H   0  0  0  0  0
    1.5123    0.9441    3.8054 H   0  0  0  0  0
    1.8853   -1.0029    2.4424 H   0  0  0  0  0
   -0.9845   -2.7119   -4.2246 H   0  0  0  0  0
    0.8920   -0.4012   -1.1771 H   0  0  0  0  0
    1.2030   -3.1685   -5.2807 H   0  0  0  0  0
    3.0864   -0.8474   -2.2660 H   0  0  0  0  0
   -3.2627    1.7575    3.5290 H   0  0  0  0  0
   -3.3226   -0.9144    4.8400 H   0  0  0  0  0
   -2.6592    0.5080    5.5304 H   0  0  0  0  0
    4.0462   -1.3364   -4.7227 H   0  0  0  0  0
    4.2323   -2.7662   -3.7949 H   0  0  0  0  0
    3.4944   -2.8375   -5.3410 H   0  0  0  0  0
   -5.0001    2.0318    4.9648 H   0  0  0  0  0
   -5.8341    1.1573    3.7484 H   0  0  0  0  0
   -5.2515    0.3449    5.1415 H   0  0  0  0  0
  1  8  1  0  0  0
  1  9  1  0  0  0
  2 23  2  0  0  0
  3  8  1  0  0  0
  3 11  1  0  0  0
  3 13  1  0  0  0
  4  8  2  0  0  0
  4 10  1  0  0  0
  5 12  2  0  0  0
  5 15  1  0  0  0
  6 14  2  0  0  0
  6 16  1  0  0  0
  7 23  1  0  0  0
  7 24  1  0  0  0
  7 28  1  0  0  0
  9 11  2  0  0  0
  9 29  1  0  0  0
 10 13  2  0  0  0
 10 17  1  0  0  0
 11 23  1  0  0  0
 12 14  1  0  0  0
 12 25  1  0  0  0
 13 30  1  0  0  0
 14 31  1  0  0  0
 15 16  2  0  0  0
 15 32  1  0  0  0
 16 33  1  0  0  0
 17 19  2  0  0  0
 17 20  1  0  0  0
 18 21  2  0  0  0
 18 22  1  0  0  0
 18 26  1  0  0  0
 19 21  1  0  0  0
 19 34  1  0  0  0
 20 22  2  0  0  0
 20 35  1  0  0  0
 21 36  1  0  0  0
 22 37  1  0  0  0
 24 25  1  0  0  0
 24 27  1  0  0  0
 24 38  1  0  0  0
 25 39  1  0  0  0
 25 40  1  0  0  0
 26 41  1  0  0  0
 26 42  1  0  0  0
 26 43  1  0  0  0
 27 44  1  0  0  0
 27 45  1  0  0  0
 27 46  1  0  0  0
M  END
> <QPhAR in domain>
True

> <s_m_source_file>
iis-002-000-000--002-499-999_filtered_optim.maegz

> <r_epik_Charging_Adjusted_Penalty>
0.0

> <PRICERANGE_1MG>
< 50

> <Name>
MolPort-005-026-477

> <i_m_Source_File_Index>
31512

> <i_lp_mmshare_version>
36015

> <PUBCHEM_EXT_DATASOURCE_URL>
https://www.molport.com

> <s_lp_Force_Field>
OPLS3

> <r_epik_Ionization_Penalty>
0.00284112

> <r_epik_State_Penalty>
0.0

> <IS_SC>
Yes

> <r_epik_Ionization_Penalty_Neutral>
0.00284112

> <s_m_Source_Path>
/home/mrgulotta/data_server/CADD/LIBRERIE/OTTIMIZZATE/MOLPORT/ALL_STOCK_COMPOUNDS_FILTERED_NEW

> <i_m_source_file_index>
31512

> <PUBCHEM_EXT_SUBSTANCE_URL>
https://www.molport.com/shop/molecule-link/MolPort-005-026-477

> <VERIFIED_AMOUNT_MG>
1

> <r_epik_Ionization_Penalty_Charging>
0.0

> <r_lp_Energy>
26.2349

> <QC_METHOD>
LCMS

> <QPhAR prediction>
7.248439007190695

> <i_epik_Tot_abs_Q>
0

> <i_epik_Tot_Q>
0

> <cdk:Title>
null

> <b_lp_Chiralities_Consistent>
1

> <s_m_entry_name>
iis-002-000-000--002-499-999_filtered.31512

> <i_f3d_flags>
0

> <COMPOUND_STATE>
FILM

> <s_m_entry_id>
71109

> <Score>
0.9175414778273003

> <Molecule_Name>
MolPort-005-026-477

> <BEST_LEAD_TIME>
12

> <s_lp_Variant>
MolPort-005-026-477-1

> <s_m_Source_File>
iis-002-000-000--002-499-999_filtered.sdf

> <r_lp_tautomer_probability>
1.0

> <UNVERIFIED_AMOUNT_MG>
1.0

$$$$
MolPort-045-907-245
XX    ILIB07022204093D

 47 50  0  0  1  0              1 V2000
    3.8711   -3.1494   -5.6152 O   0  0  0  0  0
    2.2070   -4.2148   -6.8223 O   0  0  0  0  0
   -1.5356   -1.4507   -2.7607 N   0  0  0  0  0
   -1.8154   -0.5410    4.2891 N   0  0  0  0  0
   -2.6777   -1.0786   -3.4033 N   0  0  0  0  0
   -0.5735   -1.0220    4.1348 N   0  0  0  0  0
   -1.0239   -1.3711   -0.2237 N   0  0  0  0  0
   -3.0928   -0.5342    0.1157 N   0  0  0  0  0
   -1.6274   -1.2690   -1.4277 C   0  0  0  0  0
   -1.9570   -0.9104    0.6899 C   0  0  0  0  0
   -2.8516   -0.7695   -1.1875 C   0  0  0  0  0
   -3.4883   -0.6572   -2.4121 C   0  0  0  0  0
   -0.4728   -1.2524    2.8164 C   0  0  0  0  0
   -2.5059   -0.4226    3.1250 C   0  0  0  0  0
   -0.4789   -1.9414   -3.5146 C   0  0  0  0  0
   -1.6606   -0.8672    2.1387 C   0  0  0  0  0
    1.5884   -2.9355   -5.0391 C   0  0  0  0  0
   -0.7654   -2.8008   -4.5840 C   0  0  0  0  0
    0.8267   -1.5430   -3.1699 C   0  0  0  0  0
    0.2804   -3.3135   -5.3496 C   0  0  0  0  0
    1.8530   -2.0713   -3.9668 C   0  0  0  0  0
    2.7051   -3.4365   -5.8281 C   0  0  0  0  0
    3.1816   -4.7598   -7.7168 C   0  0  0  0  0
   -2.2549   -0.2020    5.6230 C   0  0  0  0  0
   -4.8340   -0.1725   -2.7441 C   0  0  0  0  0
    0.7717   -1.8066    2.2666 C   0  0  0  0  0
   -2.9141   -1.3760    6.3242 C   0  0  0  0  0
   -0.0815   -1.7287   -0.1599 H   0  0  0  0  0
   -3.4868   -0.0480    3.1322 H   0  0  0  0  0
   -1.7609   -3.0532   -4.8025 H   0  0  0  0  0
    0.9804   -0.8910   -2.3614 H   0  0  0  0  0
    0.0995   -3.9722   -6.1470 H   0  0  0  0  0
    2.8426   -1.8024   -3.7411 H   0  0  0  0  0
    3.7120   -3.9780   -8.1751 H   0  0  0  0  0
    3.8485   -5.3675   -7.1797 H   0  0  0  0  0
    2.6996   -5.3338   -8.4521 H   0  0  0  0  0
   -2.9519    0.5818    5.5733 H   0  0  0  0  0
   -1.4294    0.0997    6.1974 H   0  0  0  0  0
   -5.5501   -0.7702   -2.2621 H   0  0  0  0  0
   -4.9363    0.8225   -2.4247 H   0  0  0  0  0
   -4.9778   -0.2231   -3.7830 H   0  0  0  0  0
    1.4140   -1.0219    1.9943 H   0  0  0  0  0
    1.2386   -2.4054    2.9918 H   0  0  0  0  0
    0.5520   -2.3886    1.4207 H   0  0  0  0  0
   -3.9482   -1.2073    6.3921 H   0  0  0  0  0
   -2.7380   -2.2545    5.7767 H   0  0  0  0  0
   -2.5120   -1.4782    7.2888 H   0  0  0  0  0
  1 22  2  0  0  0
  2 22  1  0  0  0
  2 23  1  0  0  0
  3  5  1  0  0  0
  3  9  1  0  0  0
  3 15  1  0  0  0
  4  6  1  0  0  0
  4 14  1  0  0  0
  4 24  1  0  0  0
  5 12  2  0  0  0
  6 13  2  0  0  0
  7  9  1  0  0  0
  7 10  1  0  0  0
  7 28  1  0  0  0
  8 10  2  0  0  0
  8 11  1  0  0  0
  9 11  2  0  0  0
 10 16  1  0  0  0
 11 12  1  0  0  0
 12 25  1  0  0  0
 13 16  1  0  0  0
 13 26  1  0  0  0
 14 16  2  0  0  0
 14 29  1  0  0  0
 15 18  2  0  0  0
 15 19  1  0  0  0
 17 20  2  0  0  0
 17 21  1  0  0  0
 17 22  1  0  0  0
 18 20  1  0  0  0
 18 30  1  0  0  0
 19 21  2  0  0  0
 19 31  1  0  0  0
 20 32  1  0  0  0
 21 33  1  0  0  0
 23 34  1  0  0  0
 23 35  1  0  0  0
 23 36  1  0  0  0
 24 27  1  0  0  0
 24 37  1  0  0  0
 24 38  1  0  0  0
 25 39  1  0  0  0
 25 40  1  0  0  0
 25 41  1  0  0  0
 26 42  1  0  0  0
 26 43  1  0  0  0
 26 44  1  0  0  0
 27 45  1  0  0  0
 27 46  1  0  0  0
 27 47  1  0  0  0
M  END
> <QPhAR in domain>
True

> <s_m_source_file>
iis-007-000-000--007-499-999_filtered_optim.maegz

> <r_epik_Charging_Adjusted_Penalty>
1.217E-4

> <PRICERANGE_1MG>
< 50

> <s_epik_Chemistry_Notes>
This compound has an ester and may undergo hydrolysis at high or low pH.

> <Name>
MolPort-045-907-245

> <i_m_Source_File_Index>
10068

> <i_lp_mmshare_version>
36015

> <PUBCHEM_EXT_DATASOURCE_URL>
https://www.molport.com

> <s_lp_Force_Field>
OPLS3

> <r_epik_Ionization_Penalty>
1.46736E-4

> <r_epik_State_Penalty>
0.0

> <IS_SC>
Yes

> <r_epik_Ionization_Penalty_Neutral>
2.50361E-5

> <s_m_Source_Path>
/home/mrgulotta/data_server/CADD/LIBRERIE/OTTIMIZZATE/MOLPORT/ALL_STOCK_COMPOUNDS_FILTERED_NEW

> <i_m_source_file_index>
10068

> <PUBCHEM_EXT_SUBSTANCE_URL>
https://www.molport.com/shop/molecule-link/MolPort-045-907-245

> <VERIFIED_AMOUNT_MG>
1

> <r_epik_Ionization_Penalty_Charging>
1.217E-4

> <r_lp_Energy>
15.0319

> <QC_METHOD>
LCMS

> <QPhAR prediction>
7.109376246266794

> <i_epik_Tot_abs_Q>
0

> <i_epik_Tot_Q>
0

> <cdk:Title>
null

> <b_lp_Chiralities_Consistent>
1

> <s_m_entry_name>
iis-007-000-000--007-499-999_filtered.10068

> <i_f3d_flags>
0

> <COMPOUND_STATE>
FILM

> <s_m_entry_id>
147747

> <Molecule_Name>
MolPort-045-907-245

> <Score>
0.9487262646783243

> <BEST_LEAD_TIME>
12

> <s_lp_Variant>
MolPort-045-907-245-1

> <s_m_Source_File>
iis-007-000-000--007-499-999_filtered.sdf

> <r_lp_tautomer_probability>
1.0

> <UNVERIFIED_AMOUNT_MG>
1.0

$$$$
MolPort-006-633-870
XX    ILIB07022204093D

 56 60  0  0  1  0              1 V2000
   -2.0576    1.1074    2.5732 O   0  0  0  0  0
   -3.1143    3.1680   -4.8301 O   0  0  0  0  0
   -2.8047   -0.9910   -0.8611 N   0  0  0  0  0
   -2.6016   -0.1171    0.1351 N   0  0  0  0  0
   -1.4541   -0.7913    3.5859 N   0  0  0  0  0
   -1.3262    0.2358    4.4980 N   0  0  0  0  0
    0.0084   -2.2998   -4.7227 N   0  0  0  0  0
   -1.1021    2.0469   -4.9648 N   0  0  0  0  0
   -1.8867   -0.2480    2.4658 C   0  0  0  0  0
   -1.6860    1.3340    3.8701 C   0  0  0  0  0
   -2.1982   -0.8787    1.1636 C   0  0  0  0  0
   -2.5195   -2.2773   -0.5269 C   0  0  0  0  0
    0.5881   -1.3066   -5.4316 C   0  0  0  0  0
    0.7615   -3.3877   -4.4277 C   0  0  0  0  0
   -3.2529   -0.5037   -2.0811 C   0  0  0  0  0
   -3.0703    1.0381   -3.8838 C   0  0  0  0  0
   -2.1104   -2.2441    0.7834 C   0  0  0  0  0
    1.9014   -1.3262   -5.8652 C   0  0  0  0  0
    2.0996   -3.4766   -4.8145 C   0  0  0  0  0
   -2.5723    0.5896   -2.6504 C   0  0  0  0  0
   -4.3613   -1.1191   -2.6787 C   0  0  0  0  0
   -4.1758    0.4346   -4.5000 C   0  0  0  0  0
    2.6807   -2.4385   -5.5547 C   0  0  0  0  0
   -4.8242   -0.6521   -3.9082 C   0  0  0  0  0
   -2.4521    2.1572   -4.5801 C   0  0  0  0  0
   -0.2430    0.9402   -4.6523 C   0  0  0  0  0
   -0.4669    3.1504   -5.6738 C   0  0  0  0  0
   -2.6680   -3.4307   -1.5371 C   0  0  0  0  0
   -0.2924   -0.1471   -5.7266 C   0  0  0  0  0
   -1.7397    2.7197    4.3594 C   0  0  0  0  0
   -3.1211   -4.7891   -1.0752 C   0  0  0  0  0
   -1.6992   -4.5820   -1.5098 C   0  0  0  0  0
    0.3403   -4.1893   -3.8961 H   0  0  0  0  0
   -1.7822   -2.9619    1.4759 H   0  0  0  0  0
    2.2857   -0.5168   -6.4126 H   0  0  0  0  0
    2.6675   -4.3195   -4.5507 H   0  0  0  0  0
   -1.7504    1.0132   -2.1528 H   0  0  0  0  0
   -4.8357   -1.9247   -2.2006 H   0  0  0  0  0
   -4.5278    0.7987   -5.4198 H   0  0  0  0  0
    3.6798   -2.4853   -5.8743 H   0  0  0  0  0
   -5.6448   -1.1159   -4.3708 H   0  0  0  0  0
   -0.5404    0.5129   -3.7405 H   0  0  0  0  0
    0.7482    1.2778   -4.5739 H   0  0  0  0  0
    0.4296    3.4067   -5.1911 H   0  0  0  0  0
   -0.2618    2.8598   -6.6617 H   0  0  0  0  0
   -1.1109    3.9797   -5.6794 H   0  0  0  0  0
   -3.3727   -3.1662   -2.2692 H   0  0  0  0  0
   -1.2877   -0.4733   -5.8002 H   0  0  0  0  0
   -0.0001    0.2924   -6.6343 H   0  0  0  0  0
   -2.7139    3.0941    4.2440 H   0  0  0  0  0
   -1.4738    2.7428    5.3749 H   0  0  0  0  0
   -1.0698    3.3116    3.8086 H   0  0  0  0  0
   -3.8982   -5.1282   -1.6945 H   0  0  0  0  0
   -3.4650   -4.7254   -0.0852 H   0  0  0  0  0
   -1.3330   -4.7543   -2.4787 H   0  0  0  0  0
   -0.8997   -4.3516   -0.8693 H   0  0  0  0  0
  1  9  1  0  0  0
  1 10  1  0  0  0
  2 25  2  0  0  0
  3  4  1  0  0  0
  3 12  1  0  0  0
  3 15  1  0  0  0
  4 11  2  0  0  0
  5  6  1  0  0  0
  5  9  2  0  0  0
  6 10  2  0  0  0
  7 13  2  0  0  0
  7 14  1  0  0  0
  8 25  1  0  0  0
  8 26  1  0  0  0
  8 27  1  0  0  0
  9 11  1  0  0  0
 10 30  1  0  0  0
 11 17  1  0  0  0
 12 17  2  0  0  0
 12 28  1  0  0  0
 13 18  1  0  0  0
 13 29  1  0  0  0
 14 19  2  0  0  0
 14 33  1  0  0  0
 15 20  2  0  0  0
 15 21  1  0  0  0
 16 20  1  0  0  0
 16 22  2  0  0  0
 16 25  1  0  0  0
 17 34  1  0  0  0
 18 23  2  0  0  0
 18 35  1  0  0  0
 19 23  1  0  0  0
 19 36  1  0  0  0
 20 37  1  0  0  0
 21 24  2  0  0  0
 21 38  1  0  0  0
 22 24  1  0  0  0
 22 39  1  0  0  0
 23 40  1  0  0  0
 24 41  1  0  0  0
 26 29  1  0  0  0
 26 42  1  0  0  0
 26 43  1  0  0  0
 27 44  1  0  0  0
 27 45  1  0  0  0
 27 46  1  0  0  0
 28 31  1  0  0  0
 28 32  1  0  0  0
 28 47  1  0  0  0
 29 48  1  0  0  0
 29 49  1  0  0  0
 30 50  1  0  0  0
 30 51  1  0  0  0
 30 52  1  0  0  0
 31 32  1  0  0  0
 31 53  1  0  0  0
 31 54  1  0  0  0
 32 55  1  0  0  0
 32 56  1  0  0  0
M  END
> <QPhAR in domain>
True

> <s_m_source_file>
iis-002-500-000--002-999-999_filtered_optim.maegz

> <r_epik_Charging_Adjusted_Penalty>
0.0

> <PRICERANGE_1MG>
50 - 100

> <Name>
MolPort-006-633-870

> <i_m_Source_File_Index>
43732

> <i_lp_mmshare_version>
36015

> <PUBCHEM_EXT_DATASOURCE_URL>
https://www.molport.com

> <s_lp_Force_Field>
OPLS3

> <r_epik_Ionization_Penalty>
0.0072077

> <r_epik_State_Penalty>
0.0

> <IS_SC>
Yes

> <r_epik_Ionization_Penalty_Neutral>
0.0072077

> <s_m_Source_Path>
/home/mrgulotta/data_server/CADD/LIBRERIE/OTTIMIZZATE/MOLPORT/ALL_STOCK_COMPOUNDS_FILTERED_NEW

> <i_m_source_file_index>
43732

> <PUBCHEM_EXT_SUBSTANCE_URL>
https://www.molport.com/shop/molecule-link/MolPort-006-633-870

> <VERIFIED_AMOUNT_MG>
10

> <r_epik_Ionization_Penalty_Charging>
0.0

> <r_lp_Energy>
48.6709

> <QC_METHOD>
LCMS

> <QPhAR prediction>
7.059204263118458

> <i_epik_Tot_abs_Q>
0

> <i_epik_Tot_Q>
0

> <cdk:Title>
null

> <b_lp_Chiralities_Consistent>
1

> <s_m_entry_name>
iis-002-500-000--002-999-999_filtered.43732

> <i_f3d_flags>
0

> <PRICERANGE_5MG>
50 - 100

> <COMPOUND_STATE>
LIQUID

> <s_m_entry_id>
156525

> <Molecule_Name>
MolPort-006-633-870

> <Score>
0.9217267297907

> <BEST_LEAD_TIME>
10

> <s_lp_Variant>
MolPort-006-633-870-1

> <s_m_Source_File>
iis-002-500-000--002-999-999_filtered.sdf

> <r_lp_tautomer_probability>
1.0

> <UNVERIFIED_AMOUNT_MG>
10.0

$$$$
MolPort-046-750-831
XX    ILIB07022204093D

 38 42  0  0  1  0              1 V2000
   -2.6318   -0.5403   -0.0370 O   0  0  0  0  0
    2.3154   -3.4004   -5.5645 O   0  0  0  0  0
   -1.9971    1.2563    3.5381 N   0  0  0  0  0
   -2.3291    0.8435    2.3066 N   0  0  0  0  0
   -2.6719   -0.8296   -3.4600 N   0  0  0  0  0
   -4.5723   -0.5615   -2.3076 N   0  0  0  0  0
   -2.6738   -1.4102   -1.0791 C   0  0  0  0  0
   -1.9819   -1.1758    0.9795 C   0  0  0  0  0
   -3.3125   -0.9343   -2.2451 C   0  0  0  0  0
   -1.8198   -0.3954    2.2266 C   0  0  0  0  0
   -1.3237    0.3246    4.2637 C   0  0  0  0  0
   -3.6133   -0.3561   -4.3457 C   0  0  0  0  0
   -4.7637   -0.1998   -3.6113 C   0  0  0  0  0
   -1.3472   -1.1401   -3.7344 C   0  0  0  0  0
    0.3102   -2.4062   -4.9395 C   0  0  0  0  0
    1.3286   -1.7417   -4.2695 C   0  0  0  0  0
   -2.0645   -2.5957   -0.7454 C   0  0  0  0  0
   -1.6177   -2.4473    0.5886 C   0  0  0  0  0
   -1.1973   -0.7710    3.4463 C   0  0  0  0  0
   -1.0371   -2.1377   -4.6973 C   0  0  0  0  0
   -0.2991   -0.4674   -3.0195 C   0  0  0  0  0
    1.0591   -0.7693   -3.3115 C   0  0  0  0  0
    0.9119   -3.3760   -5.8965 C   0  0  0  0  0
    2.6396   -2.2441   -4.7617 C   0  0  0  0  0
   -2.2501    2.1847    3.8448 H   0  0  0  0  0
   -1.0220    0.5415    5.2458 H   0  0  0  0  0
   -3.3549   -0.1959   -5.3507 H   0  0  0  0  0
   -5.7039    0.1439   -3.9282 H   0  0  0  0  0
   -2.0138   -3.3755   -1.4467 H   0  0  0  0  0
   -1.1096   -3.0770    1.2578 H   0  0  0  0  0
   -0.7731   -1.7262    3.5468 H   0  0  0  0  0
   -1.8099   -2.6429   -5.1974 H   0  0  0  0  0
   -0.5374    0.2439   -2.2848 H   0  0  0  0  0
    1.8495   -0.2789   -2.8244 H   0  0  0  0  0
    0.5080   -4.3382   -5.7804 H   0  0  0  0  0
    0.7931   -3.0643   -6.8921 H   0  0  0  0  0
    3.1304   -1.5315   -5.3565 H   0  0  0  0  0
    3.2673   -2.5320   -3.9708 H   0  0  0  0  0
  1  7  1  0  0  0
  1  8  1  0  0  0
  2 23  1  0  0  0
  2 24  1  0  0  0
  3  4  1  0  0  0
  3 11  1  0  0  0
  3 25  1  0  0  0
  4 10  2  0  0  0
  5  9  1  0  0  0
  5 12  1  0  0  0
  5 14  1  0  0  0
  6  9  2  0  0  0
  6 13  1  0  0  0
  7  9  1  0  0  0
  7 17  2  0  0  0
  8 10  1  0  0  0
  8 18  2  0  0  0
 10 19  1  0  0  0
 11 19  2  0  0  0
 11 26  1  0  0  0
 12 13  2  0  0  0
 12 27  1  0  0  0
 13 28  1  0  0  0
 14 20  2  0  0  0
 14 21  1  0  0  0
 15 16  2  0  0  0
 15 20  1  0  0  0
 15 23  1  0  0  0
 16 22  1  0  0  0
 16 24  1  0  0  0
 17 18  1  0  0  0
 17 29  1  0  0  0
 18 30  1  0  0  0
 19 31  1  0  0  0
 20 32  1  0  0  0
 21 22  2  0  0  0
 21 33  1  0  0  0
 22 34  1  0  0  0
 23 35  1  0  0  0
 23 36  1  0  0  0
 24 37  1  0  0  0
 24 38  1  0  0  0
M  END
> <QPhAR in domain>
True

> <s_m_source_file>
iis-007-500-000--007-999-999_filtered_optim.maegz

> <r_epik_Charging_Adjusted_Penalty>
0.00938584

> <PRICERANGE_1MG>
< 50

> <Name>
MolPort-046-750-831

> <i_m_Source_File_Index>
13823

> <i_lp_mmshare_version>
36015

> <PUBCHEM_EXT_DATASOURCE_URL>
https://www.molport.com

> <s_lp_Force_Field>
OPLS3

> <r_epik_Ionization_Penalty>
0.0093944

> <r_epik_State_Penalty>
0.0

> <IS_SC>
Yes

> <r_epik_Ionization_Penalty_Neutral>
8.55682E-6

> <s_m_Source_Path>
/home/mrgulotta/data_server/CADD/LIBRERIE/OTTIMIZZATE/MOLPORT/ALL_STOCK_COMPOUNDS_FILTERED_NEW

> <i_m_source_file_index>
13823

> <PUBCHEM_EXT_SUBSTANCE_URL>
https://www.molport.com/shop/molecule-link/MolPort-046-750-831

> <VERIFIED_AMOUNT_MG>
5

> <r_epik_Ionization_Penalty_Charging>
0.00938584

> <r_lp_Energy>
22.6882

> <QC_METHOD>
LCMS

> <QPhAR prediction>
7.029920368317361

> <i_epik_Tot_abs_Q>
0

> <i_epik_Tot_Q>
0

> <cdk:Title>
null

> <b_lp_Chiralities_Consistent>
1

> <s_m_entry_name>
iis-007-500-000--007-999-999_filtered.13823

> <i_f3d_flags>
0

> <PRICERANGE_5MG>
50 - 100

> <COMPOUND_STATE>
FILM

> <s_m_entry_id>
322831

> <Molecule_Name>
MolPort-046-750-831

> <Score>
0.9418456272879837

> <BEST_LEAD_TIME>
12

> <s_lp_Variant>
MolPort-046-750-831-1

> <s_m_Source_File>
iis-007-500-000--007-999-999_filtered.sdf

> <r_lp_tautomer_probability>
1.0

> <UNVERIFIED_AMOUNT_MG>
5.0

$$$$
MolPort-016-596-455
XX    ILIB07022204093D

 43 46  0  0  1  0              1 V2000
   -2.4199   -0.4487   -0.2578 O   0  0  0  0  0
   -5.1973    2.7236   -2.6641 O   0  0  0  0  0
   -1.8320   -1.0767    3.2559 N   0  0  0  0  0
   -1.7212   -0.2292    4.2871 N   0  0  0  0  0
   -3.8525    0.0619   -2.8281 N   0  0  0  0  0
   -2.6445   -0.0643   -4.7090 N   0  0  0  0  0
   -4.7109    2.3428   -0.4518 N   0  0  0  0  0
   -2.2031   -1.1909    0.8650 C   0  0  0  0  0
   -2.5430   -1.3242   -1.2886 C   0  0  0  0  0
   -3.7197    0.4413   -4.1445 C   0  0  0  0  0
   -2.0420   -0.4601    2.0615 C   0  0  0  0  0
   -2.7715   -0.7461   -2.5557 C   0  0  0  0  0
   -2.0498   -0.8035   -3.7246 C   0  0  0  0  0
   -1.8335    0.9861    3.7305 C   0  0  0  0  0
   -0.8293   -1.5142   -3.9590 C   0  0  0  0  0
   -2.1943   -2.5342    0.5522 C   0  0  0  0  0
   -2.4121   -2.6182   -0.8433 C   0  0  0  0  0
   -2.0596    0.8860    2.3320 C   0  0  0  0  0
   -0.8245   -2.9053   -3.7891 C   0  0  0  0  0
    0.3031   -0.7781   -4.3574 C   0  0  0  0  0
    0.3545   -3.6172   -4.0039 C   0  0  0  0  0
    1.4692   -1.5278   -4.5723 C   0  0  0  0  0
    1.4966   -2.9199   -4.4043 C   0  0  0  0  0
   -4.9570    1.9419   -1.7471 C   0  0  0  0  0
   -4.9102    0.4355   -1.9189 C   0  0  1  0  0
   -6.2480   -0.0963   -2.4131 C   0  0  0  0  0
   -1.7581   -2.0721    3.4101 H   0  0  0  0  0
   -4.5253    1.6542    0.2633 H   0  0  0  0  0
   -4.7161    3.3253   -0.2176 H   0  0  0  0  0
   -4.4374    1.0685   -4.5851 H   0  0  0  0  0
   -1.7516    1.8463    4.3270 H   0  0  0  0  0
   -2.0434   -3.2481    1.3072 H   0  0  0  0  0
   -2.4828   -3.4165   -1.5217 H   0  0  0  0  0
   -2.2194    1.5753    1.5563 H   0  0  0  0  0
   -1.7039   -3.4022   -3.5024 H   0  0  0  0  0
    0.2377    0.2633   -4.4748 H   0  0  0  0  0
    0.3723   -4.6577   -3.8644 H   0  0  0  0  0
    2.3550   -1.0477   -4.8677 H   0  0  0  0  0
    2.3920   -3.4380   -4.5840 H   0  0  0  0  0
   -4.7405   -0.0090   -0.9829 H   0  0  0  0  0
   -6.7357   -0.5985   -1.6305 H   0  0  0  0  0
   -6.8436    0.7042   -2.7401 H   0  0  0  0  0
   -6.0876   -0.7614   -3.2096 H   0  0  0  0  0
  1  8  1  0  0  0
  1  9  1  0  0  0
  2 24  2  0  0  0
  3  4  1  0  0  0
  3 11  1  0  0  0
  3 27  1  0  0  0
  4 14  2  0  0  0
  5 10  1  0  0  0
  5 12  1  0  0  0
  5 25  1  0  0  0
  6 10  2  0  0  0
  6 13  1  0  0  0
  7 24  1  0  0  0
  7 28  1  0  0  0
  7 29  1  0  0  0
  8 11  1  0  0  0
  8 16  2  0  0  0
  9 12  1  0  0  0
  9 17  2  0  0  0
 10 30  1  0  0  0
 11 18  2  0  0  0
 12 13  2  0  0  0
 13 15  1  0  0  0
 14 18  1  0  0  0
 14 31  1  0  0  0
 15 19  2  0  0  0
 15 20  1  0  0  0
 16 17  1  0  0  0
 16 32  1  0  0  0
 17 33  1  0  0  0
 18 34  1  0  0  0
 19 21  1  0  0  0
 19 35  1  0  0  0
 20 22  2  0  0  0
 20 36  1  0  0  0
 21 23  2  0  0  0
 21 37  1  0  0  0
 22 23  1  0  0  0
 22 38  1  0  0  0
 23 39  1  0  0  0
 24 25  1  0  0  0
 25 26  1  0  0  0
 25 40  1  0  0  0
 26 41  1  0  0  0
 26 42  1  0  0  0
 26 43  1  0  0  0
M  END
> <QPhAR in domain>
True

> <s_m_source_file>
iis-004-500-000--004-999-999_filtered_optim.maegz

> <r_epik_Charging_Adjusted_Penalty>
0.0406489

> <PRICERANGE_1MG>
< 50

> <Name>
MolPort-016-596-455

> <i_m_Source_File_Index>
23210

> <i_lp_mmshare_version>
36015

> <PUBCHEM_EXT_DATASOURCE_URL>
https://www.molport.com

> <s_lp_Force_Field>
OPLS3

> <r_epik_Ionization_Penalty>
0.0225116

> <r_epik_State_Penalty>
0.0181534

> <IS_SC>
Yes

> <r_epik_Ionization_Penalty_Neutral>
1.61183E-5

> <s_m_Source_Path>
/home/mrgulotta/data_server/CADD/LIBRERIE/OTTIMIZZATE/MOLPORT/ALL_STOCK_COMPOUNDS_FILTERED_NEW

> <i_m_source_file_index>
23210

> <PUBCHEM_EXT_SUBSTANCE_URL>
https://www.molport.com/shop/molecule-link/MolPort-016-596-455

> <VERIFIED_AMOUNT_MG>
1

> <r_epik_Ionization_Penalty_Charging>
0.0224955

> <r_lp_Energy>
16.2517

> <QC_METHOD>
LCMS

> <QPhAR prediction>
7.029920368317361

> <i_epik_Tot_abs_Q>
0

> <i_epik_Tot_Q>
0

> <cdk:Title>
null

> <b_lp_Chiralities_Consistent>
1

> <s_m_entry_name>
iis-004-500-000--004-999-999_filtered.23210

> <i_f3d_flags>
0

> <COMPOUND_STATE>
FILM

> <s_m_entry_id>
158796

> <Score>
0.9457688123892231

> <Molecule_Name>
MolPort-016-596-455

> <BEST_LEAD_TIME>
12

> <s_lp_Variant>
MolPort-016-596-455-1

> <s_m_Source_File>
iis-004-500-000--004-999-999_filtered.sdf

> <r_lp_tautomer_probability>
0.5

> <UNVERIFIED_AMOUNT_MG>
1.0

$$$$
MolPort-039-341-795
XX    ILIB07022204093D

 55 60  0  0  1  0              1 V2000
   -3.4824    0.0854    3.0732 S   0  0  0  0  0
   -1.7676   -2.3086   -4.9355 O   0  0  0  0  0
   -4.2891    1.7222    9.4531 N   0  0  0  0  0
   -3.6973    2.7510   10.0742 N   0  0  0  0  0
   -0.9573   -0.2024    2.8027 N   0  0  0  0  0
   -1.1528    0.1432    4.1270 N   0  0  0  0  0
   -3.3613   -0.6597    0.1000 N   0  0  0  0  0
   -2.0850   -0.2723    2.1191 C   0  0  0  0  0
   -2.4248    0.3186    4.3867 C   0  0  0  0  0
   -2.2285   -1.8945   -3.7080 C   0  0  0  0  0
   -0.4067   -2.4629   -5.0684 C   0  0  0  0  0
   -3.1729   -1.0557   -1.2139 C   0  0  0  0  0
   -2.1465   -0.6057    0.7493 C   0  0  0  0  0
   -5.2695    1.1299   10.1836 C   0  0  0  0  0
   -4.3457    2.8438   11.2461 C   0  0  0  0  0
   -3.8447    1.3784    8.1836 C   0  0  0  0  0
   -1.7964   -1.1992   -1.4072 C   0  0  0  0  0
   -2.8965    0.6836    5.6934 C   0  0  0  0  0
   -1.3252   -1.6294   -2.6689 C   0  0  0  0  0
   -3.5947   -1.7148   -3.4922 C   0  0  0  0  0
    0.1541   -3.7129   -4.7734 C   0  0  0  0  0
    0.3494   -1.3564   -5.5000 C   0  0  0  0  0
   -4.0879   -1.3003   -2.2510 C   0  0  0  0  0
   -1.1509   -0.8494   -0.1805 C   0  0  0  0  0
   -5.3281    1.8262   11.3672 C   0  0  0  0  0
   -4.7559    1.2119    7.1387 C   0  0  0  0  0
   -2.4688    1.2036    7.9746 C   0  0  0  0  0
   -4.2754    0.8503    5.8809 C   0  0  0  0  0
   -1.9487    0.8477    6.7207 C   0  0  0  0  0
    1.5317   -3.8906   -4.8926 C   0  0  0  0  0
    1.7305   -1.5732   -5.6152 C   0  0  0  0  0
    2.3125   -2.8154   -5.3223 C   0  0  0  0  0
   -6.0215   -0.0289    9.6797 C   0  0  0  0  0
   -3.9688    3.8896   12.2070 C   0  0  0  0  0
   -4.2918   -0.4619    0.4393 H   0  0  0  0  0
   -0.2941   -1.7502   -2.8260 H   0  0  0  0  0
   -4.2769   -1.8914   -4.2706 H   0  0  0  0  0
   -0.4622   -4.5054   -4.4657 H   0  0  0  0  0
   -0.1274   -0.4452   -5.7118 H   0  0  0  0  0
   -5.1166   -1.1710   -2.0849 H   0  0  0  0  0
   -0.1417   -0.7584    0.0948 H   0  0  0  0  0
   -6.0126    1.5412   12.1106 H   0  0  0  0  0
   -5.7817    1.3588    7.3082 H   0  0  0  0  0
   -1.7957    1.3393    8.7690 H   0  0  0  0  0
   -4.9360    0.7030    5.0781 H   0  0  0  0  0
   -0.9279    0.7040    6.5211 H   0  0  0  0  0
    1.9632   -4.8194   -4.6610 H   0  0  0  0  0
    2.3600   -0.7934   -5.9284 H   0  0  0  0  0
    3.3506   -2.9304   -5.4302 H   0  0  0  0  0
   -7.0113    0.2572    9.4776 H   0  0  0  0  0
   -5.5722   -0.3814    8.7986 H   0  0  0  0  0
   -6.0179   -0.7899   10.4031 H   0  0  0  0  0
   -4.6790    4.6625   12.1796 H   0  0  0  0  0
   -3.0244    4.2729   11.9546 H   0  0  0  0  0
   -3.9336    3.4807   13.1735 H   0  0  0  0  0
  1  8  1  0  0  0
  1  9  1  0  0  0
  2 10  1  0  0  0
  2 11  1  0  0  0
  3  4  1  0  0  0
  3 14  1  0  0  0
  3 16  1  0  0  0
  4 15  2  0  0  0
  5  6  1  0  0  0
  5  8  2  0  0  0
  6  9  2  0  0  0
  7 12  1  0  0  0
  7 13  1  0  0  0
  7 35  1  0  0  0
  8 13  1  0  0  0
  9 18  1  0  0  0
 10 19  2  0  0  0
 10 20  1  0  0  0
 11 21  2  0  0  0
 11 22  1  0  0  0
 12 17  2  0  0  0
 12 23  1  0  0  0
 13 24  2  0  0  0
 14 25  2  0  0  0
 14 33  1  0  0  0
 15 25  1  0  0  0
 15 34  1  0  0  0
 16 26  2  0  0  0
 16 27  1  0  0  0
 17 19  1  0  0  0
 17 24  1  0  0  0
 18 28  2  0  0  0
 18 29  1  0  0  0
 19 36  1  0  0  0
 20 23  2  0  0  0
 20 37  1  0  0  0
 21 30  1  0  0  0
 21 38  1  0  0  0
 22 31  2  0  0  0
 22 39  1  0  0  0
 23 40  1  0  0  0
 24 41  1  0  0  0
 25 42  1  0  0  0
 26 28  1  0  0  0
 26 43  1  0  0  0
 27 29  2  0  0  0
 27 44  1  0  0  0
 28 45  1  0  0  0
 29 46  1  0  0  0
 30 32  2  0  0  0
 30 47  1  0  0  0
 31 32  1  0  0  0
 31 48  1  0  0  0
 32 49  1  0  0  0
 33 50  1  0  0  0
 33 51  1  0  0  0
 33 52  1  0  0  0
 34 53  1  0  0  0
 34 54  1  0  0  0
 34 55  1  0  0  0
M  END
> <QPhAR in domain>
True

> <s_m_source_file>
iis-006-000-000--006-499-999_filtered_optim.maegz

> <PRICERANGE_50MG>
100 - 250

> <r_epik_Charging_Adjusted_Penalty>
0.0

> <PRICERANGE_1MG>
< 50

> <Name>
MolPort-039-341-795

> <i_m_Source_File_Index>
119993

> <i_lp_mmshare_version>
36015

> <PUBCHEM_EXT_DATASOURCE_URL>
https://www.molport.com

> <s_lp_Force_Field>
OPLS3

> <r_epik_Ionization_Penalty>
1.2825E-4

> <r_epik_State_Penalty>
0.0

> <IS_SC>
Yes

> <r_epik_Ionization_Penalty_Neutral>
1.2825E-4

> <s_m_Source_Path>
/home/mrgulotta/data_server/CADD/LIBRERIE/OTTIMIZZATE/MOLPORT/ALL_STOCK_COMPOUNDS_FILTERED_NEW

> <i_m_source_file_index>
119993

> <PUBCHEM_EXT_SUBSTANCE_URL>
https://www.molport.com/shop/molecule-link/MolPort-039-341-795

> <VERIFIED_AMOUNT_MG>
300

> <r_epik_Ionization_Penalty_Charging>
0.0

> <r_lp_Energy>
48.1866

> <QC_METHOD>
NMR

> <QPhAR prediction>
7.029920368317361

> <i_epik_Tot_abs_Q>
0

> <i_epik_Tot_Q>
0

> <cdk:Title>
null

> <b_lp_Chiralities_Consistent>
1

> <s_m_entry_name>
iis-006-000-000--006-499-999_filtered.119993

> <i_f3d_flags>
0

> <PRICERANGE_5MG>
< 50

> <COMPOUND_STATE>
N/A

> <s_m_entry_id>
399005

> <Molecule_Name>
MolPort-039-341-795

> <Score>
0.9346823046177842

> <BEST_LEAD_TIME>
10

> <s_lp_Variant>
MolPort-039-341-795-1

> <s_m_Source_File>
iis-006-000-000--006-499-999_filtered.sdf

> <r_lp_tautomer_probability>
1.0

> <UNVERIFIED_AMOUNT_MG>
300

$$$$
MolPort-016-624-514
XX    ILIB07022204093D

 47 51  0  0  1  0              1 V2000
   -0.8481   -2.2402    0.8013 O   0  0  0  0  0
   -0.5059   -3.5566    3.6240 O   0  0  0  0  0
   -1.4067    0.2369    3.5264 N   0  0  0  0  0
   -1.9570   -0.7012    2.6885 N   0  0  0  0  0
   -3.0322   -0.6064   -0.4149 N   0  0  0  0  0
   -2.6494    0.2527   -2.4463 N   0  0  0  0  0
   -1.4868   -2.5078   -0.3672 C   0  0  0  0  0
   -0.3523   -3.4258    1.2583 C   0  0  0  0  0
   -3.3408    0.3722   -1.3340 C   0  0  0  0  0
   -2.0742   -1.3960   -1.0093 C   0  0  0  0  0
   -1.8594   -0.8452   -2.2500 C   0  0  0  0  0
   -1.9531    1.4634    3.2617 C   0  0  0  0  0
   -2.8350   -0.0361    1.9194 C   0  0  0  0  0
   -0.9463   -1.2969   -3.2568 C   0  0  0  0  0
   -2.8564    1.3145    2.2510 C   0  0  0  0  0
   -1.4106   -3.8477   -0.6653 C   0  0  0  0  0
   -0.6785   -4.4434    0.3878 C   0  0  0  0  0
   -1.4619   -1.6729   -4.5039 C   0  0  0  0  0
    0.4259   -1.3325   -2.9424 C   0  0  0  0  0
   -0.5930   -2.1230   -5.4961 C   0  0  0  0  0
    1.2715   -1.7832   -3.9668 C   0  0  0  0  0
    0.7759   -2.1670   -5.2207 C   0  0  0  0  0
    0.3888   -3.3613    2.5273 C   0  0  0  0  0
   -3.6006   -0.7703    0.9033 C   0  0  0  0  0
   -1.8252    2.8438    3.7617 C   0  0  0  0  0
   -3.5107    2.5752    1.8784 C   0  0  0  0  0
   -2.8535    3.6045    2.8564 C   0  0  0  0  0
    0.0361   -3.6917    4.4894 H   0  0  0  0  0
   -0.7094   -0.0378    4.2035 H   0  0  0  0  0
   -4.0599    1.1016   -1.1028 H   0  0  0  0  0
   -1.8570   -4.2169   -1.5411 H   0  0  0  0  0
   -0.3753   -5.4275    0.5933 H   0  0  0  0  0
   -2.4946   -1.6142   -4.6844 H   0  0  0  0  0
    0.7545   -1.0327   -1.9913 H   0  0  0  0  0
   -0.9710   -2.4209   -6.4293 H   0  0  0  0  0
    2.3074   -1.8404   -3.8054 H   0  0  0  0  0
    1.4496   -2.4910   -5.9580 H   0  0  0  0  0
    0.8473   -2.4206    2.6129 H   0  0  0  0  0
    1.1238   -4.1111    2.5374 H   0  0  0  0  0
   -4.5864   -0.4088    0.9068 H   0  0  0  0  0
   -3.6002   -1.7883    1.1605 H   0  0  0  0  0
   -2.0722    2.8708    4.7819 H   0  0  0  0  0
   -0.8365    3.1728    3.6321 H   0  0  0  0  0
   -3.3110    2.7884    0.8699 H   0  0  0  0  0
   -4.5475    2.4863    2.0187 H   0  0  0  0  0
   -3.5906    4.0468    3.4594 H   0  0  0  0  0
   -2.3547    4.3497    2.3101 H   0  0  0  0  0
  1  7  1  0  0  0
  1  8  1  0  0  0
  2 23  1  0  0  0
  2 28  1  0  0  0
  3  4  1  0  0  0
  3 12  1  0  0  0
  3 29  1  0  0  0
  4 13  2  0  0  0
  5  9  1  0  0  0
  5 10  1  0  0  0
  5 24  1  0  0  0
  6  9  2  0  0  0
  6 11  1  0  0  0
  7 10  1  0  0  0
  7 16  2  0  0  0
  8 17  2  0  0  0
  8 23  1  0  0  0
  9 30  1  0  0  0
 10 11  2  0  0  0
 11 14  1  0  0  0
 12 15  2  0  0  0
 12 25  1  0  0  0
 13 15  1  0  0  0
 13 24  1  0  0  0
 14 18  2  0  0  0
 14 19  1  0  0  0
 15 26  1  0  0  0
 16 17  1  0  0  0
 16 31  1  0  0  0
 17 32  1  0  0  0
 18 20  1  0  0  0
 18 33  1  0  0  0
 19 21  2  0  0  0
 19 34  1  0  0  0
 20 22  2  0  0  0
 20 35  1  0  0  0
 21 22  1  0  0  0
 21 36  1  0  0  0
 22 37  1  0  0  0
 23 38  1  0  0  0
 23 39  1  0  0  0
 24 40  1  0  0  0
 24 41  1  0  0  0
 25 27  1  0  0  0
 25 42  1  0  0  0
 25 43  1  0  0  0
 26 27  1  0  0  0
 26 44  1  0  0  0
 26 45  1  0  0  0
 27 46  1  0  0  0
 27 47  1  0  0  0
M  END
> <QPhAR in domain>
True

> <s_m_source_file>
iis-004-500-000--004-999-999_filtered_optim.maegz

> <r_epik_Charging_Adjusted_Penalty>
0.0803202

> <PRICERANGE_1MG>
< 50

> <Name>
MolPort-016-624-514

> <i_m_Source_File_Index>
30793

> <i_lp_mmshare_version>
36015

> <PUBCHEM_EXT_DATASOURCE_URL>
https://www.molport.com

> <s_lp_Force_Field>
OPLS3

> <r_epik_Ionization_Penalty>
0.043506

> <r_epik_State_Penalty>
0.0368147

> <IS_SC>
Yes

> <r_epik_Ionization_Penalty_Neutral>
5.81177E-7

> <s_m_Source_Path>
/home/mrgulotta/data_server/CADD/LIBRERIE/OTTIMIZZATE/MOLPORT/ALL_STOCK_COMPOUNDS_FILTERED_NEW

> <i_m_source_file_index>
30793

> <PUBCHEM_EXT_SUBSTANCE_URL>
https://www.molport.com/shop/molecule-link/MolPort-016-624-514

> <VERIFIED_AMOUNT_MG>
5

> <r_epik_Ionization_Penalty_Charging>
0.0435054

> <r_lp_Energy>
24.4767

> <QC_METHOD>
LCMS

> <QPhAR prediction>
7.029920368317361

> <i_epik_Tot_abs_Q>
0

> <i_epik_Tot_Q>
0

> <cdk:Title>
null

> <b_lp_Chiralities_Consistent>
1

> <s_m_entry_name>
iis-004-500-000--004-999-999_filtered.30793

> <i_f3d_flags>
0

> <PRICERANGE_5MG>
50 - 100

> <COMPOUND_STATE>
FILM

> <s_m_entry_id>
166379

> <Molecule_Name>
MolPort-016-624-514

> <Score>
0.9218229032085876

> <BEST_LEAD_TIME>
12

> <s_lp_Variant>
MolPort-016-624-514-1

> <s_m_Source_File>
iis-004-500-000--004-999-999_filtered.sdf

> <r_lp_tautomer_probability>
0.5

> <UNVERIFIED_AMOUNT_MG>
5.0

$$$$
MolPort-016-595-006
XX    ILIB07022204093D

 48 52  0  0  1  0              1 V2000
   -2.4180   -0.4474   -0.2562 O   0  0  0  0  0
   -7.1543   -0.1439   -1.3594 O   0  0  0  0  0
   -6.0547    2.3369   -2.8076 O   0  0  0  0  0
   -1.8428   -1.0776    3.2588 N   0  0  0  0  0
   -1.7305   -0.2308    4.2910 N   0  0  0  0  0
   -3.8418    0.0701   -2.8301 N   0  0  0  0  0
   -2.6289   -0.0625   -4.7070 N   0  0  0  0  0
   -2.2080   -1.1904    0.8674 C   0  0  0  0  0
   -2.5430   -1.3223   -1.2871 C   0  0  0  0  0
   -3.7041    0.4487   -4.1465 C   0  0  0  0  0
   -2.0469   -0.4603    2.0645 C   0  0  0  0  0
   -2.7656   -0.7434   -2.5557 C   0  0  0  0  0
   -2.0410   -0.8047   -3.7217 C   0  0  0  0  0
   -1.8350    0.9851    3.7334 C   0  0  0  0  0
   -0.8235   -1.5215   -3.9531 C   0  0  0  0  0
   -2.2061   -2.5342    0.5547 C   0  0  0  0  0
   -2.4209   -2.6172   -0.8413 C   0  0  0  0  0
   -2.0586    0.8860    2.3340 C   0  0  0  0  0
   -0.8101   -2.5088   -4.9473 C   0  0  0  0  0
    0.3015   -1.1909   -3.1738 C   0  0  0  0  0
    0.3621   -3.2256   -5.1855 C   0  0  0  0  0
    1.4648   -1.9268   -3.4453 C   0  0  0  0  0
    1.4990   -2.9209   -4.4336 C   0  0  0  0  0
   -6.2480    0.0088   -2.4404 C   0  0  1  0  0
   -6.6816    1.1533   -3.3262 C   0  0  0  0  0
   -5.0469    1.9590   -1.8564 C   0  0  0  0  0
   -7.2324   -1.4775   -0.8721 C   0  0  0  0  0
   -4.9004    0.4493   -1.9238 C   0  0  2  0  0
   -1.7739   -2.0734    3.4128 H   0  0  0  0  0
   -4.4180    1.0788   -4.5890 H   0  0  0  0  0
   -1.7498    1.8452    4.3296 H   0  0  0  0  0
   -2.0612   -3.2488    1.3102 H   0  0  0  0  0
   -2.4946   -3.4152   -1.5198 H   0  0  0  0  0
   -2.2134    1.5755    1.5574 H   0  0  0  0  0
   -1.6778   -2.7036   -5.5055 H   0  0  0  0  0
    0.2332   -0.4364   -2.4468 H   0  0  0  0  0
    0.3780   -3.9775   -5.9183 H   0  0  0  0  0
    2.3433   -1.7397   -2.9015 H   0  0  0  0  0
    2.3960   -3.4391   -4.6047 H   0  0  0  0  0
   -6.2264   -0.8752   -3.0066 H   0  0  0  0  0
   -6.3702    0.9977   -4.3168 H   0  0  0  0  0
   -7.7248    1.2703   -3.3015 H   0  0  0  0  0
   -4.1400    2.4273   -2.1027 H   0  0  0  0  0
   -5.3445    2.2565   -0.8944 H   0  0  0  0  0
   -6.3842   -1.6877   -0.2900 H   0  0  0  0  0
   -7.2749   -2.1442   -1.6822 H   0  0  0  0  0
   -8.0958   -1.5854   -0.2843 H   0  0  0  0  0
   -4.7381    0.0004   -0.9886 H   0  0  0  0  0
  1  8  1  0  0  0
  1  9  1  0  0  0
  2 24  1  0  0  0
  2 27  1  0  0  0
  3 25  1  0  0  0
  3 26  1  0  0  0
  4  5  1  0  0  0
  4 11  1  0  0  0
  4 29  1  0  0  0
  5 14  2  0  0  0
  6 10  1  0  0  0
  6 12  1  0  0  0
  6 28  1  0  0  0
  7 10  2  0  0  0
  7 13  1  0  0  0
  8 11  1  0  0  0
  8 16  2  0  0  0
  9 12  1  0  0  0
  9 17  2  0  0  0
 10 30  1  0  0  0
 11 18  2  0  0  0
 12 13  2  0  0  0
 13 15  1  0  0  0
 14 18  1  0  0  0
 14 31  1  0  0  0
 15 19  2  0  0  0
 15 20  1  0  0  0
 16 17  1  0  0  0
 16 32  1  0  0  0
 17 33  1  0  0  0
 18 34  1  0  0  0
 19 21  1  0  0  0
 19 35  1  0  0  0
 20 22  2  0  0  0
 20 36  1  0  0  0
 21 23  2  0  0  0
 21 37  1  0  0  0
 22 23  1  0  0  0
 22 38  1  0  0  0
 23 39  1  0  0  0
 24 25  1  0  0  0
 24 28  1  0  0  0
 24 40  1  0  0  0
 25 41  1  0  0  0
 25 42  1  0  0  0
 26 28  1  0  0  0
 26 43  1  0  0  0
 26 44  1  0  0  0
 27 45  1  0  0  0
 27 46  1  0  0  0
 27 47  1  0  0  0
 28 48  1  0  0  0
M  END
> <QPhAR in domain>
True

> <s_m_source_file>
iis-004-500-000--004-999-999_filtered_optim.maegz

> <r_epik_Charging_Adjusted_Penalty>
0.0951944

> <PRICERANGE_1MG>
< 50

> <Name>
MolPort-016-595-006

> <i_m_Source_File_Index>
22792

> <i_lp_mmshare_version>
36015

> <PUBCHEM_EXT_DATASOURCE_URL>
https://www.molport.com

> <s_lp_Force_Field>
OPLS3

> <r_epik_Ionization_Penalty>
0.0512929

> <r_epik_State_Penalty>
0.0439174

> <IS_SC>
Yes

> <r_epik_Ionization_Penalty_Neutral>
1.5816E-5

> <s_m_Source_Path>
/home/mrgulotta/data_server/CADD/LIBRERIE/OTTIMIZZATE/MOLPORT/ALL_STOCK_COMPOUNDS_FILTERED_NEW

> <i_m_source_file_index>
22792

> <PUBCHEM_EXT_SUBSTANCE_URL>
https://www.molport.com/shop/molecule-link/MolPort-016-595-006

> <VERIFIED_AMOUNT_MG>
5

> <r_epik_Ionization_Penalty_Charging>
0.051277

> <r_lp_Energy>
23.914

> <QC_METHOD>
LCMS

> <QPhAR prediction>
7.029920368317361

> <i_epik_Tot_abs_Q>
0

> <i_epik_Tot_Q>
0

> <cdk:Title>
null

> <b_lp_Chiralities_Consistent>
1

> <s_m_entry_name>
iis-004-500-000--004-999-999_filtered.22792

> <i_f3d_flags>
0

> <PRICERANGE_5MG>
50 - 100

> <COMPOUND_STATE>
FILM

> <s_m_entry_id>
158378

> <Molecule_Name>
MolPort-016-595-006

> <Score>
0.9457263015151133

> <BEST_LEAD_TIME>
12

> <s_lp_Variant>
MolPort-016-595-006-1

> <s_m_Source_File>
iis-004-500-000--004-999-999_filtered.sdf

> <r_lp_tautomer_probability>
0.5

> <UNVERIFIED_AMOUNT_MG>
5.0

$$$$
MolPort-046-748-750
XX    ILIB07022204093D

 43 47  0  0  1  0              1 V2000
   -2.5986   -0.5374   -0.1346 O   0  0  0  0  0
    3.5664   -2.5029   -7.1621 O   0  0  0  0  0
   -1.2573    1.1123    3.3145 N   0  0  0  0  0
   -1.7886    0.7690    2.1318 N   0  0  0  0  0
   -3.0410   -0.8318   -3.5283 N   0  0  0  0  0
    1.7876   -2.9912   -4.9707 N   0  0  0  0  0
   -4.7207   -0.1758   -2.2041 N   0  0  0  0  0
    1.8813   -1.3877   -3.4424 N   0  0  0  0  0
   -2.9209   -1.3857   -1.1445 C   0  0  0  0  0
   -1.9922   -1.2856    0.8298 C   0  0  0  0  0
   -3.5645   -0.7969   -2.2549 C   0  0  0  0  0
    2.5820   -2.2383   -4.1562 C   0  0  0  0  0
    0.4883   -2.6016   -4.7676 C   0  0  0  0  0
    0.5681   -1.5903   -3.8125 C   0  0  0  0  0
   -1.5508   -0.5481    2.0342 C   0  0  0  0  0
   -0.7168    0.0673    3.9951 C   0  0  0  0  0
   -3.9512   -0.1814   -4.3301 C   0  0  0  0  0
   -4.9688    0.2104   -3.4922 C   0  0  0  0  0
   -1.8408   -1.4067   -3.9219 C   0  0  0  0  0
   -2.5322   -2.6689   -0.8413 C   0  0  0  0  0
   -1.9331   -2.6064    0.4386 C   0  0  0  0  0
   -0.6206   -0.9661   -3.3770 C   0  0  0  0  0
   -0.7109   -3.0430   -5.3262 C   0  0  0  0  0
   -0.8975   -1.0356    3.1973 C   0  0  0  0  0
   -1.8799   -2.4229   -4.8789 C   0  0  0  0  0
    2.5400   -3.4785   -7.2676 C   0  0  0  0  0
    2.2334   -4.0195   -5.8809 C   0  0  0  0  0
    3.1465   -1.5625   -7.1520 H   0  0  0  0  0
   -1.2849    2.0745    3.6203 H   0  0  0  0  0
    3.6221   -2.3823   -4.1581 H   0  0  0  0  0
   -0.2805    0.2238    4.9372 H   0  0  0  0  0
   -3.7677   -0.0823   -5.3592 H   0  0  0  0  0
   -5.8486    0.7351   -3.7228 H   0  0  0  0  0
   -2.7102   -3.4465   -1.5240 H   0  0  0  0  0
   -1.4979   -3.3224    1.0714 H   0  0  0  0  0
   -0.5785   -0.1954   -2.6652 H   0  0  0  0  0
   -0.7047   -3.8068   -6.0467 H   0  0  0  0  0
   -0.6670   -2.0566    3.2810 H   0  0  0  0  0
   -2.8004   -2.7345   -5.2765 H   0  0  0  0  0
    1.6788   -3.0378   -7.6758 H   0  0  0  0  0
    2.8623   -4.2597   -7.8908 H   0  0  0  0  0
    3.1086   -4.4627   -5.5067 H   0  0  0  0  0
    1.4851   -4.7497   -5.9776 H   0  0  0  0  0
  1  9  1  0  0  0
  1 10  1  0  0  0
  2 26  1  0  0  0
  2 28  1  0  0  0
  3  4  1  0  0  0
  3 16  1  0  0  0
  3 29  1  0  0  0
  4 15  2  0  0  0
  5 11  1  0  0  0
  5 17  1  0  0  0
  5 19  1  0  0  0
  6 12  1  0  0  0
  6 13  1  0  0  0
  6 27  1  0  0  0
  7 11  2  0  0  0
  7 18  1  0  0  0
  8 12  2  0  0  0
  8 14  1  0  0  0
  9 11  1  0  0  0
  9 20  2  0  0  0
 10 15  1  0  0  0
 10 21  2  0  0  0
 12 30  1  0  0  0
 13 14  2  0  0  0
 13 23  1  0  0  0
 14 22  1  0  0  0
 15 24  1  0  0  0
 16 24  2  0  0  0
 16 31  1  0  0  0
 17 18  2  0  0  0
 17 32  1  0  0  0
 18 33  1  0  0  0
 19 22  2  0  0  0
 19 25  1  0  0  0
 20 21  1  0  0  0
 20 34  1  0  0  0
 21 35  1  0  0  0
 22 36  1  0  0  0
 23 25  2  0  0  0
 23 37  1  0  0  0
 24 38  1  0  0  0
 25 39  1  0  0  0
 26 27  1  0  0  0
 26 40  1  0  0  0
 26 41  1  0  0  0
 27 42  1  0  0  0
 27 43  1  0  0  0
M  END
> <QPhAR in domain>
True

> <s_m_source_file>
iis-007-500-000--007-999-999_filtered_optim.maegz

> <r_epik_Charging_Adjusted_Penalty>
0.00405482

> <PRICERANGE_1MG>
< 50

> <Name>
MolPort-046-748-750

> <i_m_Source_File_Index>
12903

> <i_lp_mmshare_version>
36015

> <PUBCHEM_EXT_DATASOURCE_URL>
https://www.molport.com

> <s_lp_Force_Field>
OPLS3

> <r_epik_Ionization_Penalty>
0.008183

> <r_epik_State_Penalty>
0.0

> <IS_SC>
Yes

> <r_epik_Ionization_Penalty_Neutral>
0.00412817

> <s_m_Source_Path>
/home/mrgulotta/data_server/CADD/LIBRERIE/OTTIMIZZATE/MOLPORT/ALL_STOCK_COMPOUNDS_FILTERED_NEW

> <i_m_source_file_index>
12903

> <PUBCHEM_EXT_SUBSTANCE_URL>
https://www.molport.com/shop/molecule-link/MolPort-046-748-750

> <VERIFIED_AMOUNT_MG>
5

> <r_epik_Ionization_Penalty_Charging>
0.00405482

> <r_lp_Energy>
21.7085

> <QC_METHOD>
LCMS

> <QPhAR prediction>
7.029920368317361

> <i_epik_Tot_abs_Q>
0

> <i_epik_Tot_Q>
0

> <cdk:Title>
null

> <b_lp_Chiralities_Consistent>
1

> <s_m_entry_name>
iis-007-500-000--007-999-999_filtered.12903

> <i_f3d_flags>
0

> <PRICERANGE_5MG>
50 - 100

> <COMPOUND_STATE>
FILM

> <s_m_entry_id>
321911

> <Molecule_Name>
MolPort-046-748-750

> <Score>
0.9454028511247081

> <BEST_LEAD_TIME>
12

> <s_lp_Variant>
MolPort-046-748-750-1

> <s_m_Source_File>
iis-007-500-000--007-999-999_filtered.sdf

> <r_lp_tautomer_probability>
1.0

> <UNVERIFIED_AMOUNT_MG>
5.0

$$$$
MolPort-023-258-291
XX    ILIB07022204093D

 45 48  0  0  1  0              1 V2000
   -1.8789   -2.8691    5.5410 S   0  0  0  0  0
   -1.0815   -3.2637   -2.6543 O   0  0  0  0  0
   -1.0029   -2.1719    6.4629 O   0  0  0  0  0
   -3.3164   -2.8877    5.7266 O   0  0  0  0  0
   -0.3372   -7.1309   -3.6055 N   0  0  0  0  0
   -0.7891   -5.9238   -3.2373 N   0  0  0  0  0
   -2.0693   -0.6353   -0.6753 N   0  0  0  0  0
   -3.3516   -1.3433   -2.3682 N   0  0  0  0  0
   -1.5864   -2.1719    3.9404 C   0  0  0  0  0
   -1.0093   -1.9199   -2.4717 C   0  0  0  0  0
    0.0878   -3.6455   -3.2412 C   0  0  0  0  0
   -2.1367   -1.3242   -1.8662 C   0  0  0  0  0
    0.2220   -5.0898   -3.5283 C   0  0  0  0  0
    0.9087   -7.1055   -4.1484 C   0  0  0  0  0
   -3.3477   -0.1902   -0.4230 C   0  0  0  0  0
   -4.1094   -0.6399   -1.4746 C   0  0  0  0  0
   -1.1460   -1.0225    1.4771 C   0  0  0  0  0
   -1.0210   -2.9482    2.9268 C   0  0  0  0  0
   -1.9331   -0.8323    3.7139 C   0  0  0  0  0
    0.1890   -1.4321   -2.9375 C   0  0  0  0  0
    0.8999   -2.5479   -3.4385 C   0  0  0  0  0
    1.3032   -5.7910   -4.1270 C   0  0  0  0  0
   -0.7900   -2.3613    1.6831 C   0  0  0  0  0
   -1.7217   -0.2114    2.4736 C   0  0  0  0  0
   -1.3452   -4.5547    5.5195 C   0  0  0  0  0
   -0.8970   -0.4225    0.1409 C   0  0  2  0  0
   -0.4078    1.0591    0.1592 C   0  0  0  0  0
   -0.9131   -7.9492   -3.4681 H   0  0  0  0  0
    1.3566   -7.9966   -4.4768 H   0  0  0  0  0
   -3.5473    0.3704    0.4421 H   0  0  0  0  0
   -5.1366   -0.5074   -1.6471 H   0  0  0  0  0
   -0.7784   -3.9535    3.1088 H   0  0  0  0  0
   -2.3642   -0.2641    4.4845 H   0  0  0  0  0
    0.4002   -0.4058   -2.8693 H   0  0  0  0  0
    1.8419   -2.6656   -3.8872 H   0  0  0  0  0
    2.1600   -5.2692   -4.4369 H   0  0  0  0  0
   -0.3532   -2.9142    0.9046 H   0  0  0  0  0
   -1.9627    0.7885    2.2623 H   0  0  0  0  0
   -0.2959   -4.5894    5.5028 H   0  0  0  0  0
   -1.7248   -5.0311    4.6643 H   0  0  0  0  0
   -1.6980   -5.0445    6.3787 H   0  0  0  0  0
   -0.0677   -0.8809   -0.3114 H   0  0  0  0  0
   -1.2381    1.7019    0.1576 H   0  0  0  0  0
    0.1641    1.2282    1.0234 H   0  0  0  0  0
    0.1798    1.2442   -0.6911 H   0  0  0  0  0
  1  3  2  0  0  0
  1  4  2  0  0  0
  1  9  1  0  0  0
  1 25  1  0  0  0
  2 10  1  0  0  0
  2 11  1  0  0  0
  5  6  1  0  0  0
  5 14  1  0  0  0
  5 28  1  0  0  0
  6 13  2  0  0  0
  7 12  1  0  0  0
  7 15  1  0  0  0
  7 26  1  0  0  0
  8 12  2  0  0  0
  8 16  1  0  0  0
  9 18  2  0  0  0
  9 19  1  0  0  0
 10 12  1  0  0  0
 10 20  2  0  0  0
 11 13  1  0  0  0
 11 21  2  0  0  0
 13 22  1  0  0  0
 14 22  2  0  0  0
 14 29  1  0  0  0
 15 16  2  0  0  0
 15 30  1  0  0  0
 16 31  1  0  0  0
 17 23  2  0  0  0
 17 24  1  0  0  0
 17 26  1  0  0  0
 18 23  1  0  0  0
 18 32  1  0  0  0
 19 24  2  0  0  0
 19 33  1  0  0  0
 20 21  1  0  0  0
 20 34  1  0  0  0
 21 35  1  0  0  0
 22 36  1  0  0  0
 23 37  1  0  0  0
 24 38  1  0  0  0
 25 39  1  0  0  0
 25 40  1  0  0  0
 25 41  1  0  0  0
 26 27  1  0  0  0
 26 42  1  0  0  0
 27 43  1  0  0  0
 27 44  1  0  0  0
 27 45  1  0  0  0
M  END
> <QPhAR in domain>
True

> <s_m_source_file>
iis-005-000-000--005-499-999_filtered_optim.maegz

> <r_epik_Charging_Adjusted_Penalty>
0.240468

> <PRICERANGE_1MG>
< 50

> <Name>
MolPort-023-258-291

> <i_m_Source_File_Index>
61375

> <i_lp_mmshare_version>
36015

> <PUBCHEM_EXT_DATASOURCE_URL>
https://www.molport.com

> <s_lp_Force_Field>
OPLS3

> <r_epik_Ionization_Penalty>
0.12551

> <r_epik_State_Penalty>
0.114966

> <IS_SC>
Yes

> <r_epik_Ionization_Penalty_Neutral>
8.55682E-6

> <s_m_Source_Path>
/home/mrgulotta/data_server/CADD/LIBRERIE/OTTIMIZZATE/MOLPORT/ALL_STOCK_COMPOUNDS_FILTERED_NEW

> <i_m_source_file_index>
61375

> <PUBCHEM_EXT_SUBSTANCE_URL>
https://www.molport.com/shop/molecule-link/MolPort-023-258-291

> <VERIFIED_AMOUNT_MG>
5

> <r_epik_Ionization_Penalty_Charging>
0.125502

> <r_lp_Energy>
12.4982

> <QC_METHOD>
LCMS

> <QPhAR prediction>
7.029920368317361

> <i_epik_Tot_abs_Q>
0

> <i_epik_Tot_Q>
0

> <cdk:Title>
null

> <b_lp_Chiralities_Consistent>
1

> <s_m_entry_name>
iis-005-000-000--005-499-999_filtered.61375

> <i_f3d_flags>
0

> <PRICERANGE_5MG>
50 - 100

> <COMPOUND_STATE>
FILM

> <s_m_entry_id>
61375

> <Molecule_Name>
MolPort-023-258-291

> <Score>
0.9225653315566188

> <BEST_LEAD_TIME>
12

> <s_lp_Variant>
MolPort-023-258-291-1

> <s_m_Source_File>
iis-005-000-000--005-499-999_filtered.sdf

> <r_lp_tautomer_probability>
0.5

> <UNVERIFIED_AMOUNT_MG>
5

$$$$
MolPort-016-617-401
XX    ILIB07022204093D

 45 48  0  0  1  0              1 V2000
   -4.7812    2.5303    0.8342 O   0  0  0  0  0
   -0.7104    0.0134    0.6731 N   0  0  0  0  0
   -3.4512   -0.5522   -0.6853 N   0  0  0  0  0
   -3.4951   -2.1406   -2.2607 N   0  0  0  0  0
   -3.6699   -3.8076    5.3555 N   0  0  0  0  0
   -4.2109   -1.4541   -1.3979 C   0  0  0  0  0
   -1.0825    0.0767   -0.6626 C   0  0  0  0  0
   -2.1611   -0.6963   -1.1440 C   0  0  0  0  0
   -2.2197   -1.6738   -2.1084 C   0  0  0  0  0
    0.3524    0.8767    0.9031 C   0  0  0  0  0
   -1.3262   -0.7769    1.6392 C   0  0  0  0  0
   -1.1382   -2.1855   -2.8955 C   0  0  0  0  0
   -2.5342   -2.3691    3.5342 C   0  0  0  0  0
   -0.2250    0.9631   -1.2842 C   0  0  0  0  0
    0.6746    1.4507   -0.3151 C   0  0  0  0  0
   -1.3540   -2.1650    1.4526 C   0  0  0  0  0
   -1.8853   -0.1340    2.7598 C   0  0  0  0  0
   -0.8364   -3.5508   -2.8047 C   0  0  0  0  0
   -0.4379   -1.2905   -3.7266 C   0  0  0  0  0
   -1.9736   -2.9717    2.4053 C   0  0  0  0  0
   -2.4932   -0.9773    3.7021 C   0  0  0  0  0
    0.2170   -4.0703   -3.5557 C   0  0  0  0  0
    0.6106   -1.8496   -4.4727 C   0  0  0  0  0
    0.9312   -3.2129   -4.3945 C   0  0  0  0  0
   -4.3418    1.7012   -0.2316 C   0  0  0  0  0
   -3.9150    0.3578    0.3364 C   0  0  0  0  0
   -3.1611   -3.1631    4.5352 C   0  0  0  0  0
   -4.0602    3.2366    1.0395 H   0  0  0  0  0
   -5.2426   -1.5295   -1.2177 H   0  0  0  0  0
    0.7442    0.9807    1.8717 H   0  0  0  0  0
   -0.3260    1.1588   -2.3108 H   0  0  0  0  0
    1.4777    2.1238   -0.3823 H   0  0  0  0  0
   -0.9104   -2.5892    0.6006 H   0  0  0  0  0
   -1.8300    0.9109    2.8474 H   0  0  0  0  0
   -1.4016   -4.1727   -2.1752 H   0  0  0  0  0
   -0.7135   -0.2778   -3.7576 H   0  0  0  0  0
   -2.0238   -4.0138    2.2869 H   0  0  0  0  0
   -2.9255   -0.5381    4.5522 H   0  0  0  0  0
    0.4603   -5.0892   -3.4842 H   0  0  0  0  0
    1.1811   -1.2433   -5.1126 H   0  0  0  0  0
    1.7204   -3.5862   -4.9778 H   0  0  0  0  0
   -3.5296    2.1563   -0.7171 H   0  0  0  0  0
   -5.1268    1.5650   -0.9156 H   0  0  0  0  0
   -3.1441    0.5295    1.0283 H   0  0  0  0  0
   -4.7413   -0.0618    0.8300 H   0  0  0  0  0
  1 25  1  0  0  0
  1 28  1  0  0  0
  2  7  1  0  0  0
  2 10  1  0  0  0
  2 11  1  0  0  0
  3  6  1  0  0  0
  3  8  1  0  0  0
  3 26  1  0  0  0
  4  6  2  0  0  0
  4  9  1  0  0  0
  5 27  3  0  0  0
  6 29  1  0  0  0
  7  8  1  0  0  0
  7 14  2  0  0  0
  8  9  2  0  0  0
  9 12  1  0  0  0
 10 15  2  0  0  0
 10 30  1  0  0  0
 11 16  2  0  0  0
 11 17  1  0  0  0
 12 18  2  0  0  0
 12 19  1  0  0  0
 13 20  2  0  0  0
 13 21  1  0  0  0
 13 27  1  0  0  0
 14 15  1  0  0  0
 14 31  1  0  0  0
 15 32  1  0  0  0
 16 20  1  0  0  0
 16 33  1  0  0  0
 17 21  2  0  0  0
 17 34  1  0  0  0
 18 22  1  0  0  0
 18 35  1  0  0  0
 19 23  2  0  0  0
 19 36  1  0  0  0
 20 37  1  0  0  0
 21 38  1  0  0  0
 22 24  2  0  0  0
 22 39  1  0  0  0
 23 24  1  0  0  0
 23 40  1  0  0  0
 24 41  1  0  0  0
 25 26  1  0  0  0
 25 42  1  0  0  0
 25 43  1  0  0  0
 26 44  1  0  0  0
 26 45  1  0  0  0
M  END
> <QPhAR in domain>
True

> <s_m_source_file>
iis-004-500-000--004-999-999_filtered_optim.maegz

> <r_epik_Charging_Adjusted_Penalty>
0.0904466

> <PRICERANGE_1MG>
< 50

> <Name>
MolPort-016-617-401

> <i_m_Source_File_Index>
28893

> <i_lp_mmshare_version>
36015

> <PUBCHEM_EXT_DATASOURCE_URL>
https://www.molport.com

> <s_lp_Force_Field>
OPLS3

> <r_epik_Ionization_Penalty>
0.0488015

> <r_epik_State_Penalty>
0.0416452

> <IS_SC>
Yes

> <r_epik_Ionization_Penalty_Neutral>
7.08975E-8

> <s_m_Source_Path>
/home/mrgulotta/data_server/CADD/LIBRERIE/OTTIMIZZATE/MOLPORT/ALL_STOCK_COMPOUNDS_FILTERED_NEW

> <i_m_source_file_index>
28893

> <PUBCHEM_EXT_SUBSTANCE_URL>
https://www.molport.com/shop/molecule-link/MolPort-016-617-401

> <VERIFIED_AMOUNT_MG>
1

> <r_epik_Ionization_Penalty_Charging>
0.0488014

> <r_lp_Energy>
26.2795

> <QC_METHOD>
LCMS

> <QPhAR prediction>
7.029920368317361

> <i_epik_Tot_abs_Q>
0

> <i_epik_Tot_Q>
0

> <cdk:Title>
null

> <b_lp_Chiralities_Consistent>
1

> <s_m_entry_name>
iis-004-500-000--004-999-999_filtered.28893

> <i_f3d_flags>
0

> <COMPOUND_STATE>
FILM

> <s_m_entry_id>
164479

> <Score>
0.9223055631716482

> <Molecule_Name>
MolPort-016-617-401

> <BEST_LEAD_TIME>
12

> <s_lp_Variant>
MolPort-016-617-401-1

> <s_m_Source_File>
iis-004-500-000--004-999-999_filtered.sdf

> <r_lp_tautomer_probability>
1.0

> <UNVERIFIED_AMOUNT_MG>
1.0

$$$$
MolPort-019-902-888
XX    ILIB07022204093D

 42 45  0  0  1  0              1 V2000
    2.5088   -2.3574   -5.0000 N   0  0  0  0  0
    3.6094   -2.6885   -4.3105 N   0  0  0  0  0
   -2.3525   -0.6926   -1.1328 N   0  0  0  0  0
   -2.3672   -0.5562    3.5869 N   0  0  0  0  0
   -3.3115   -2.3428   -2.3018 N   0  0  0  0  0
   -1.8184   -1.8730    1.8623 N   0  0  0  0  0
   -2.2109   -1.6489   -2.1143 C   0  0  0  0  0
   -2.4551   -1.8042    3.0098 C   0  0  0  0  0
   -1.2920   -0.6248    1.6792 C   0  0  0  0  0
    2.7197   -2.2207   -6.3359 C   0  0  0  0  0
    4.5625   -2.8008   -5.2480 C   0  0  0  0  0
   -3.6484   -0.8032   -0.6804 C   0  0  0  0  0
   -1.6123    0.2068    2.7256 C   0  0  0  0  0
   -4.2090   -1.8223   -1.4126 C   0  0  0  0  0
    1.3228   -2.1826   -4.3008 C   0  0  0  0  0
   -0.9929   -1.8364   -2.8506 C   0  0  0  0  0
   -1.0186   -1.6528   -4.2383 C   0  0  0  0  0
    4.0508   -2.4922   -6.5371 C   0  0  0  0  0
    0.1504   -1.8369   -4.9766 C   0  0  0  0  0
    1.3271   -2.3584   -2.9092 C   0  0  0  0  0
    0.1686   -2.1885   -2.1367 C   0  0  0  0  0
   -1.3472    0.2377   -0.6743 C   0  0  0  0  0
   -0.5012   -0.2948    0.4861 C   0  0  0  0  0
   -2.2773   -1.2720   -4.9316 C   0  0  0  0  0
   -2.8181   -0.3765    4.4726 H   0  0  0  0  0
   -2.9894   -2.5690    3.4916 H   0  0  0  0  0
    1.9249   -1.9549   -6.9684 H   0  0  0  0  0
    5.5357   -3.0858   -4.9757 H   0  0  0  0  0
   -3.9958   -0.1658    0.0782 H   0  0  0  0  0
   -1.4051    1.2098    2.9569 H   0  0  0  0  0
   -5.1830   -2.2112   -1.3612 H   0  0  0  0  0
    4.4570   -2.4397   -7.5039 H   0  0  0  0  0
    0.1607   -1.7206   -6.0201 H   0  0  0  0  0
    2.2152   -2.6249   -2.4164 H   0  0  0  0  0
    0.1284   -2.3067   -1.0941 H   0  0  0  0  0
   -1.8112    1.1199   -0.3444 H   0  0  0  0  0
   -0.6913    0.4611   -1.4632 H   0  0  0  0  0
    0.2047    0.4441    0.7274 H   0  0  0  0  0
   -0.0048   -1.1554    0.1462 H   0  0  0  0  0
   -3.0772   -1.3135   -4.2527 H   0  0  0  0  0
   -2.4557   -1.9377   -5.7238 H   0  0  0  0  0
   -2.1880   -0.2959   -5.3080 H   0  0  0  0  0
  1  2  1  0  0  0
  1 10  1  0  0  0
  1 15  1  0  0  0
  2 11  2  0  0  0
  3  7  1  0  0  0
  3 12  1  0  0  0
  3 22  1  0  0  0
  4  8  1  0  0  0
  4 13  1  0  0  0
  4 25  1  0  0  0
  5  7  2  0  0  0
  5 14  1  0  0  0
  6  8  2  0  0  0
  6  9  1  0  0  0
  7 16  1  0  0  0
  8 26  1  0  0  0
  9 13  2  0  0  0
  9 23  1  0  0  0
 10 18  2  0  0  0
 10 27  1  0  0  0
 11 18  1  0  0  0
 11 28  1  0  0  0
 12 14  2  0  0  0
 12 29  1  0  0  0
 13 30  1  0  0  0
 14 31  1  0  0  0
 15 19  2  0  0  0
 15 20  1  0  0  0
 16 17  2  0  0  0
 16 21  1  0  0  0
 17 19  1  0  0  0
 17 24  1  0  0  0
 18 32  1  0  0  0
 19 33  1  0  0  0
 20 21  2  0  0  0
 20 34  1  0  0  0
 21 35  1  0  0  0
 22 23  1  0  0  0
 22 36  1  0  0  0
 22 37  1  0  0  0
 23 38  1  0  0  0
 23 39  1  0  0  0
 24 40  1  0  0  0
 24 41  1  0  0  0
 24 42  1  0  0  0
M  END
> <QPhAR in domain>
True

> <s_m_source_file>
iis-004-500-000--004-999-999_filtered_optim.maegz

> <r_epik_Charging_Adjusted_Penalty>
0.206987

> <PRICERANGE_1MG>
< 50

> <Name>
MolPort-019-902-888

> <i_m_Source_File_Index>
66395

> <i_lp_mmshare_version>
36015

> <PUBCHEM_EXT_DATASOURCE_URL>
https://www.molport.com

> <s_lp_Force_Field>
OPLS3

> <r_epik_Ionization_Penalty>
0.207006

> <r_epik_State_Penalty>
0.0

> <IS_SC>
Yes

> <r_epik_Ionization_Penalty_Neutral>
1.86736E-5

> <s_m_Source_Path>
/home/mrgulotta/data_server/CADD/LIBRERIE/OTTIMIZZATE/MOLPORT/ALL_STOCK_COMPOUNDS_FILTERED_NEW

> <i_m_source_file_index>
66395

> <PUBCHEM_EXT_SUBSTANCE_URL>
https://www.molport.com/shop/molecule-link/MolPort-019-902-888

> <VERIFIED_AMOUNT_MG>
5

> <r_epik_Ionization_Penalty_Charging>
0.206987

> <r_lp_Energy>
27.0127

> <QC_METHOD>
LCMS

> <QPhAR prediction>
7.029920368317361

> <i_epik_Tot_abs_Q>
0

> <i_epik_Tot_Q>
0

> <cdk:Title>
null

> <b_lp_Chiralities_Consistent>
1

> <s_m_entry_name>
iis-004-500-000--004-999-999_filtered.66395

> <i_f3d_flags>
0

> <PRICERANGE_5MG>
50 - 100

> <COMPOUND_STATE>
FILM

> <s_m_entry_id>
201981

> <Molecule_Name>
MolPort-019-902-888

> <Score>
0.9334965607704605

> <BEST_LEAD_TIME>
12

> <s_lp_Variant>
MolPort-019-902-888-1

> <s_m_Source_File>
iis-004-500-000--004-999-999_filtered.sdf

> <r_lp_tautomer_probability>
1.0

> <UNVERIFIED_AMOUNT_MG>
5.0

$$$$
MolPort-019-936-585
XX    ILIB07022204093D

 58 61  0  0  1  0              1 V2000
   -1.2422   -0.2505    5.2422 S   0  0  0  0  0
   -2.4385    0.2560    5.8887 O   0  0  0  0  0
   -0.5999   -1.4717    5.6875 O   0  0  0  0  0
    3.5938   -4.1133   -5.8242 O   0  0  0  0  0
   -3.3750    0.7898   -5.8438 O   0  0  0  0  0
   -3.5674   -1.7935   -2.3516 N   0  0  0  0  0
   -2.1074   -0.3474   -1.4644 N   0  0  0  0  0
    2.2383   -2.7197   -4.5957 N   0  0  0  0  0
   -1.7812   -1.3398   -4.8027 N   0  0  0  0  0
   -1.6489   -0.4880    3.5371 C   0  0  0  0  0
   -2.6543   -0.7869   -2.5762 C   0  0  0  0  0
   -2.6816   -1.0938   -0.4736 C   0  0  0  0  0
   -3.5830   -1.9937   -0.9900 C   0  0  0  0  0
   -2.3369   -0.8989    0.9023 C   0  0  0  0  0
   -1.0322    0.2860    2.5518 C   0  0  0  0  0
   -2.5977   -1.4639    3.1982 C   0  0  0  0  0
   -1.3892    0.0832    1.2192 C   0  0  0  0  0
   -2.9756   -1.7002    1.8682 C   0  0  0  0  0
   -0.0304    1.0332    5.3535 C   0  0  0  0  0
    3.3867   -3.0361   -5.2695 C   0  0  0  0  0
   -3.6162    0.2860   -4.5293 C   0  0  0  0  0
   -2.9111   -0.2501   -6.7012 C   0  0  0  0  0
   -2.3291   -0.2882   -3.9209 C   0  0  2  0  0
   -0.5149   -1.8555   -4.3164 C   0  0  0  0  0
   -1.6016   -0.8157   -6.1680 C   0  0  0  0  0
    1.9473   -1.4482   -3.9189 C   0  0  0  0  0
    1.1763   -3.7227   -4.4766 C   0  0  0  0  0
    0.6404   -0.8474   -4.4375 C   0  0  0  0  0
   -0.1511   -3.1816   -5.0039 C   0  0  0  0  0
    4.4492   -1.9951   -5.3184 C   0  0  0  0  0
   -4.0578   -2.2131   -3.1285 H   0  0  0  0  0
   -4.2110   -2.7252   -0.5741 H   0  0  0  0  0
   -0.3148    1.0040    2.8207 H   0  0  0  0  0
   -3.0472   -2.0426    3.9502 H   0  0  0  0  0
   -0.9545    0.6589    0.4562 H   0  0  0  0  0
   -3.6831   -2.4169    1.5712 H   0  0  0  0  0
   -0.5098    1.9674    5.3605 H   0  0  0  0  0
    0.5224    0.9169    6.2386 H   0  0  0  0  0
    0.6155    0.9774    4.5275 H   0  0  0  0  0
   -4.3385   -0.4748   -4.5731 H   0  0  0  0  0
   -3.9635    1.0634   -3.9148 H   0  0  0  0  0
   -3.6281   -1.0161   -6.7420 H   0  0  0  0  0
   -2.7550    0.1349   -7.6655 H   0  0  0  0  0
   -1.6242    0.4829   -3.8159 H   0  0  0  0  0
   -0.6070   -2.1099   -3.3019 H   0  0  0  0  0
   -0.8804   -0.0526   -6.1579 H   0  0  0  0  0
   -1.2827   -1.5903   -6.8011 H   0  0  0  0  0
    1.8585   -1.6139   -2.8859 H   0  0  0  0  0
    2.7279   -0.7694   -4.0986 H   0  0  0  0  0
    1.4362   -4.5752   -5.0318 H   0  0  0  0  0
    1.0550   -3.9858   -3.4674 H   0  0  0  0  0
    0.7684   -0.5811   -5.4451 H   0  0  0  0  0
    0.4170    0.0103   -3.8745 H   0  0  0  0  0
   -0.9027   -3.8905   -4.8169 H   0  0  0  0  0
   -0.0653   -3.0272   -6.0389 H   0  0  0  0  0
    5.0699   -2.0887   -4.4767 H   0  0  0  0  0
    5.0209   -2.1192   -6.1903 H   0  0  0  0  0
    4.0064   -1.0430   -5.3227 H   0  0  0  0  0
  1  2  2  0  0  0
  1  3  2  0  0  0
  1 10  1  0  0  0
  1 19  1  0  0  0
  4 20  2  0  0  0
  5 21  1  0  0  0
  5 22  1  0  0  0
  6 11  1  0  0  0
  6 13  1  0  0  0
  6 31  1  0  0  0
  7 11  2  0  0  0
  7 12  1  0  0  0
  8 20  1  0  0  0
  8 26  1  0  0  0
  8 27  1  0  0  0
  9 23  1  0  0  0
  9 24  1  0  0  0
  9 25  1  0  0  0
 10 15  2  0  0  0
 10 16  1  0  0  0
 11 23  1  0  0  0
 12 13  2  0  0  0
 12 14  1  0  0  0
 13 32  1  0  0  0
 14 17  2  0  0  0
 14 18  1  0  0  0
 15 17  1  0  0  0
 15 33  1  0  0  0
 16 18  2  0  0  0
 16 34  1  0  0  0
 17 35  1  0  0  0
 18 36  1  0  0  0
 19 37  1  0  0  0
 19 38  1  0  0  0
 19 39  1  0  0  0
 20 30  1  0  0  0
 21 23  1  0  0  0
 21 40  1  0  0  0
 21 41  1  0  0  0
 22 25  1  0  0  0
 22 42  1  0  0  0
 22 43  1  0  0  0
 23 44  1  0  0  0
 24 28  1  0  0  0
 24 29  1  0  0  0
 24 45  1  0  0  0
 25 46  1  0  0  0
 25 47  1  0  0  0
 26 28  1  0  0  0
 26 48  1  0  0  0
 26 49  1  0  0  0
 27 29  1  0  0  0
 27 50  1  0  0  0
 27 51  1  0  0  0
 28 52  1  0  0  0
 28 53  1  0  0  0
 29 54  1  0  0  0
 29 55  1  0  0  0
 30 56  1  0  0  0
 30 57  1  0  0  0
 30 58  1  0  0  0
M  END
> <QPhAR in domain>
True

> <s_m_source_file>
iis-004-500-000--004-999-999_filtered_optim.maegz

> <r_epik_Charging_Adjusted_Penalty>
0.784233

> <PRICERANGE_1MG>
100 - 250

> <Name>
MolPort-019-936-585

> <i_m_Source_File_Index>
69782

> <i_lp_mmshare_version>
36015

> <PUBCHEM_EXT_DATASOURCE_URL>
https://www.molport.com

> <s_lp_Force_Field>
OPLS3

> <r_epik_Ionization_Penalty>
0.248006

> <r_epik_State_Penalty>
0.536396

> <IS_SC>
Yes

> <r_epik_Ionization_Penalty_Neutral>
1.691E-4

> <s_m_Source_Path>
/home/mrgulotta/data_server/CADD/LIBRERIE/OTTIMIZZATE/MOLPORT/ALL_STOCK_COMPOUNDS_FILTERED_NEW

> <i_m_source_file_index>
69782

> <PUBCHEM_EXT_SUBSTANCE_URL>
https://www.molport.com/shop/molecule-link/MolPort-019-936-585

> <VERIFIED_AMOUNT_MG>
30

> <r_epik_Ionization_Penalty_Charging>
0.247837

> <r_lp_Energy>
34.4721

> <QC_METHOD>
HPLC UV

> <QPhAR prediction>
7.029920368317361

> <i_epik_Tot_abs_Q>
0

> <i_epik_Tot_Q>
0

> <cdk:Title>
null

> <b_lp_Chiralities_Consistent>
1

> <s_m_entry_name>
iis-004-500-000--004-999-999_filtered.69782

> <i_f3d_flags>
0

> <PRICERANGE_5MG>
250 - 500

> <COMPOUND_STATE>
N/A

> <s_m_entry_id>
205368

> <Molecule_Name>
MolPort-019-936-585

> <Score>
0.9340175288604341

> <BEST_LEAD_TIME>
15

> <s_lp_Variant>
MolPort-019-936-585-1

> <s_m_Source_File>
iis-004-500-000--004-999-999_filtered.sdf

> <r_lp_tautomer_probability>
0.5

> <UNVERIFIED_AMOUNT_MG>
30.0

$$$$
MolPort-002-766-145
XX    ILIB07022204093D

 51 54  0  0  1  0              1 V2000
    0.6763   -0.5481   -4.1230 O   0  0  0  0  0
    2.8945   -2.3008   -6.1934 O   0  0  0  0  0
    1.9478   -0.1880   -6.1738 O   0  0  0  0  0
   -1.4395   -0.3544   -1.1572 N   0  0  0  0  0
   -4.1484   -1.9395   -4.1641 N   0  0  0  0  0
   -1.2417   -0.8140    4.4980 N   0  0  0  0  0
   -0.7925   -0.1501   -0.0088 N   0  0  0  0  0
   -5.2871   -1.6411   -3.5215 N   0  0  0  0  0
   -0.0965   -0.1633    4.2480 N   0  0  0  0  0
    1.4336   -1.6143   -4.5078 C   0  0  0  0  0
    0.0552   -0.9060   -2.9688 C   0  0  0  0  0
   -2.6221   -1.0107   -1.0137 C   0  0  0  0  0
   -1.6084   -0.6692    0.9294 C   0  0  0  0  0
   -4.8887   -1.2993   -2.2861 C   0  0  0  0  0
   -0.0632   -0.0562    2.9111 C   0  0  0  0  0
   -3.0332   -1.7739   -3.4043 C   0  0  0  0  0
   -1.9614   -1.1021    3.3809 C   0  0  0  0  0
   -3.4736   -1.3477   -2.1758 C   0  0  0  0  0
   -1.2310   -0.6147    2.3262 C   0  0  0  0  0
    1.2998   -2.6445   -3.6016 C   0  0  0  0  0
    0.4050   -2.1855   -2.6074 C   0  0  0  0  0
   -2.7627   -1.2432    0.3323 C   0  0  0  0  0
    2.1719   -1.4443   -5.7129 C   0  0  0  0  0
    2.6533    0.1580   -7.3691 C   0  0  0  0  0
   -0.8242    0.1138   -2.3779 C   0  0  0  0  0
   -4.2324   -2.3701   -5.5410 C   0  0  0  0  0
   -1.5752   -1.1094    5.8730 C   0  0  0  0  0
   -5.8867   -0.9163   -1.2788 C   0  0  0  0  0
    1.0771    0.6033    2.2617 C   0  0  0  0  0
   -2.0860   -1.9719   -3.8119 H   0  0  0  0  0
   -2.8799   -1.6042    3.4631 H   0  0  0  0  0
    1.8225   -3.5433   -3.7476 H   0  0  0  0  0
    0.0066   -2.6120   -1.7346 H   0  0  0  0  0
   -3.6068   -1.7541    0.6915 H   0  0  0  0  0
    2.4374    1.1525   -7.6275 H   0  0  0  0  0
    2.3546   -0.4789   -8.1486 H   0  0  0  0  0
    3.6858    0.0543   -7.2086 H   0  0  0  0  0
   -1.5705    0.3521   -3.0770 H   0  0  0  0  0
   -0.2493    0.9686   -2.1746 H   0  0  0  0  0
   -3.3688   -2.9123   -5.7915 H   0  0  0  0  0
   -4.3119   -1.5302   -6.1661 H   0  0  0  0  0
   -5.0775   -2.9806   -5.6659 H   0  0  0  0  0
   -0.7351   -1.5107    6.3585 H   0  0  0  0  0
   -2.3611   -1.8052    5.9008 H   0  0  0  0  0
   -1.8717   -0.2269    6.3586 H   0  0  0  0  0
   -6.1685   -1.7631   -0.7257 H   0  0  0  0  0
   -6.7304   -0.5141   -1.7573 H   0  0  0  0  0
   -5.4747   -0.1979   -0.6334 H   0  0  0  0  0
    0.8700    1.6261    2.1452 H   0  0  0  0  0
    1.9346    0.4853    2.8560 H   0  0  0  0  0
    1.2419    0.1701    1.3196 H   0  0  0  0  0
  1 10  1  0  0  0
  1 11  1  0  0  0
  2 23  2  0  0  0
  3 23  1  0  0  0
  3 24  1  0  0  0
  4  7  1  0  0  0
  4 12  1  0  0  0
  4 25  1  0  0  0
  5  8  1  0  0  0
  5 16  1  0  0  0
  5 26  1  0  0  0
  6  9  1  0  0  0
  6 17  1  0  0  0
  6 27  1  0  0  0
  7 13  2  0  0  0
  8 14  2  0  0  0
  9 15  2  0  0  0
 10 20  2  0  0  0
 10 23  1  0  0  0
 11 21  2  0  0  0
 11 25  1  0  0  0
 12 18  1  0  0  0
 12 22  2  0  0  0
 13 19  1  0  0  0
 13 22  1  0  0  0
 14 18  1  0  0  0
 14 28  1  0  0  0
 15 19  1  0  0  0
 15 29  1  0  0  0
 16 18  2  0  0  0
 16 30  1  0  0  0
 17 19  2  0  0  0
 17 31  1  0  0  0
 20 21  1  0  0  0
 20 32  1  0  0  0
 21 33  1  0  0  0
 22 34  1  0  0  0
 24 35  1  0  0  0
 24 36  1  0  0  0
 24 37  1  0  0  0
 25 38  1  0  0  0
 25 39  1  0  0  0
 26 40  1  0  0  0
 26 41  1  0  0  0
 26 42  1  0  0  0
 27 43  1  0  0  0
 27 44  1  0  0  0
 27 45  1  0  0  0
 28 46  1  0  0  0
 28 47  1  0  0  0
 28 48  1  0  0  0
 29 49  1  0  0  0
 29 50  1  0  0  0
 29 51  1  0  0  0
M  END
> <QPhAR in domain>
True

> <s_m_source_file>
iis-001-000-000--001-499-999_minus_1_wrong_filtered_optim.maegz

> <r_epik_Charging_Adjusted_Penalty>
0.0

> <PRICERANGE_1MG>
< 50

> <s_epik_Chemistry_Notes>
This compound has an ester and may undergo hydrolysis at high or low pH.

> <Name>
MolPort-002-766-145

> <i_m_Source_File_Index>
25049

> <i_lp_mmshare_version>
36015

> <PUBCHEM_EXT_DATASOURCE_URL>
https://www.molport.com

> <s_lp_Force_Field>
OPLS3

> <r_epik_Ionization_Penalty>
2.8509E-4

> <r_epik_State_Penalty>
0.0

> <IS_SC>
Yes

> <r_epik_Ionization_Penalty_Neutral>
2.8509E-4

> <s_m_Source_Path>
/home/mrgulotta/data_server/CADD/LIBRERIE/OTTIMIZZATE/MOLPORT/ALL_STOCK_COMPOUNDS_FILTERED_NEW

> <i_m_source_file_index>
25049

> <PUBCHEM_EXT_SUBSTANCE_URL>
https://www.molport.com/shop/molecule-link/MolPort-002-766-145

> <VERIFIED_AMOUNT_MG>
30

> <r_epik_Ionization_Penalty_Charging>
0.0

> <r_lp_Energy>
4.86784

> <QC_METHOD>
NMR

> <QPhAR prediction>
6.989132829074532

> <i_epik_Tot_abs_Q>
0

> <i_epik_Tot_Q>
0

> <cdk:Title>
null

> <b_lp_Chiralities_Consistent>
1

> <s_m_entry_name>
iis-001-000-000--001-499-999_minus_1_wrong_filtered.25049

> <i_f3d_flags>
0

> <PRICERANGE_5MG>
< 50

> <COMPOUND_STATE>
N/A

> <s_m_entry_id>
110798

> <Molecule_Name>
MolPort-002-766-145

> <Score>
0.9225066537770147

> <BEST_LEAD_TIME>
10

> <s_lp_Variant>
MolPort-002-766-145-1

> <s_m_Source_File>
iis-001-000-000--001-499-999_minus_1_wrong_filtered.sdf

> <r_lp_tautomer_probability>
1.0

> <UNVERIFIED_AMOUNT_MG>
30.0

$$$$
MolPort-010-706-723
XX    ILIB07022204093D

 64 68  0  0  1  0              1 V2000
   -6.7520   -0.5303   -0.4364 O   0  0  0  0  0
   -9.1016   -0.1081    0.6897 O   0  0  0  0  0
   -8.8711   -2.8066    7.4629 O   0  0  0  0  0
   -2.1318   -0.8511    0.2426 N   0  0  0  0  0
   -1.0391   -1.1069   -0.4938 N   0  0  0  0  0
   -4.5234   -0.6545    0.0121 N   0  0  0  0  0
   -9.2461   -1.3228    5.0508 N   0  0  0  0  0
   -8.1992    0.2849    2.7949 N   0  0  0  0  0
   -5.4824   -0.7356   -0.9270 C   0  0  0  0  0
   -3.2930   -0.8760   -0.4792 C   0  0  0  0  0
   -1.5317   -1.2988   -1.7197 C   0  0  0  0  0
   -1.9756   -0.6001    1.5986 C   0  0  0  0  0
   -2.9414   -1.1660   -1.7954 C   0  0  0  0  0
   -0.5977   -1.6089   -2.7598 C   0  0  0  0  0
   -3.9629   -1.2578   -2.7764 C   0  0  0  0  0
   -5.2695   -1.0112   -2.2773 C   0  0  0  0  0
   -1.0225    0.3481    1.9946 C   0  0  0  0  0
   -2.7881   -1.3071    2.5049 C   0  0  0  0  0
   -0.8577   -2.7139   -3.5811 C   0  0  0  0  0
    0.5317   -0.7817   -2.9072 C   0  0  0  0  0
   -0.8418    0.6116    3.3516 C   0  0  0  0  0
   -2.5840   -1.0117    3.8613 C   0  0  0  0  0
    0.0413   -3.0391   -4.5957 C   0  0  0  0  0
    1.4106   -1.1343   -3.9424 C   0  0  0  0  0
   -1.6343   -0.0685    4.2793 C   0  0  0  0  0
    1.1709   -2.2373   -4.7754 C   0  0  0  0  0
   -8.1406   -0.0481    1.4521 C   0  0  0  0  0
   -6.7266   -0.2675    0.9568 C   0  0  0  0  0
   -8.4141   -1.4580    7.3613 C   0  0  0  0  0
   -8.8047   -3.4561    6.1953 C   0  0  0  0  0
   -9.2734   -0.6755    6.3711 C   0  0  0  0  0
   -9.6797   -2.7256    5.1816 C   0  0  0  0  0
  -10.0820   -0.6360    4.0820 C   0  0  0  0  0
   -9.4219    0.6089    3.4795 C   0  0  0  0  0
   -3.6982   -1.5669   -4.2051 C   0  0  0  0  0
   -7.3535    0.3092    3.3465 H   0  0  0  0  0
   -6.0819   -1.0387   -2.9419 H   0  0  0  0  0
   -0.4522    0.8528    1.2717 H   0  0  0  0  0
   -3.4898   -2.0024    2.1489 H   0  0  0  0  0
   -1.7233   -3.2886   -3.4295 H   0  0  0  0  0
    0.6709    0.0363   -2.2638 H   0  0  0  0  0
   -0.1207    1.3100    3.6593 H   0  0  0  0  0
   -3.1507   -1.5024    4.5965 H   0  0  0  0  0
   -0.1371   -3.8735   -5.2077 H   0  0  0  0  0
    2.2773   -0.5663   -4.1115 H   0  0  0  0  0
   -1.5233    0.1237    5.3056 H   0  0  0  0  0
    1.8540   -2.4569   -5.5420 H   0  0  0  0  0
   -6.3016   -1.0855    1.4596 H   0  0  0  0  0
   -6.1530    0.5926    1.1403 H   0  0  0  0  0
   -7.4181   -1.4501    7.0291 H   0  0  0  0  0
   -8.4728   -0.9967    8.3027 H   0  0  0  0  0
   -9.1429   -4.4455    6.2909 H   0  0  0  0  0
   -7.8117   -3.4571    5.8541 H   0  0  0  0  0
   -8.8989    0.3021    6.2894 H   0  0  0  0  0
  -10.2615   -0.6434    6.7248 H   0  0  0  0  0
   -9.5999   -3.2048    4.2508 H   0  0  0  0  0
  -10.6780   -2.7546    5.5058 H   0  0  0  0  0
  -10.9725   -0.3270    4.5447 H   0  0  0  0  0
  -10.3070   -1.2873    3.2897 H   0  0  0  0  0
  -10.0963    1.0458    2.8036 H   0  0  0  0  0
   -9.2191    1.2843    4.2574 H   0  0  0  0  0
   -4.4412   -2.2148   -4.5665 H   0  0  0  0  0
   -3.7077   -0.6775   -4.7632 H   0  0  0  0  0
   -2.7586   -2.0268   -4.2954 H   0  0  0  0  0
  1  9  1  0  0  0
  1 28  1  0  0  0
  2 27  2  0  0  0
  3 29  1  0  0  0
  3 30  1  0  0  0
  4  5  1  0  0  0
  4 10  1  0  0  0
  4 12  1  0  0  0
  5 11  2  0  0  0
  6  9  1  0  0  0
  6 10  2  0  0  0
  7 31  1  0  0  0
  7 32  1  0  0  0
  7 33  1  0  0  0
  8 27  1  0  0  0
  8 34  1  0  0  0
  8 36  1  0  0  0
  9 16  2  0  0  0
 10 13  1  0  0  0
 11 13  1  0  0  0
 11 14  1  0  0  0
 12 17  2  0  0  0
 12 18  1  0  0  0
 13 15  2  0  0  0
 14 19  2  0  0  0
 14 20  1  0  0  0
 15 16  1  0  0  0
 15 35  1  0  0  0
 16 37  1  0  0  0
 17 21  1  0  0  0
 17 38  1  0  0  0
 18 22  2  0  0  0
 18 39  1  0  0  0
 19 23  1  0  0  0
 19 40  1  0  0  0
 20 24  2  0  0  0
 20 41  1  0  0  0
 21 25  2  0  0  0
 21 42  1  0  0  0
 22 25  1  0  0  0
 22 43  1  0  0  0
 23 26  2  0  0  0
 23 44  1  0  0  0
 24 26  1  0  0  0
 24 45  1  0  0  0
 25 46  1  0  0  0
 26 47  1  0  0  0
 27 28  1  0  0  0
 28 48  1  0  0  0
 28 49  1  0  0  0
 29 31  1  0  0  0
 29 50  1  0  0  0
 29 51  1  0  0  0
 30 32  1  0  0  0
 30 52  1  0  0  0
 30 53  1  0  0  0
 31 54  1  0  0  0
 31 55  1  0  0  0
 32 56  1  0  0  0
 32 57  1  0  0  0
 33 34  1  0  0  0
 33 58  1  0  0  0
 33 59  1  0  0  0
 34 60  1  0  0  0
 34 61  1  0  0  0
 35 62  1  0  0  0
 35 63  1  0  0  0
 35 64  1  0  0  0
M  END
> <QPhAR in domain>
True

> <s_m_source_file>
iis-004-000-000--004-499-999_filtered_optim.maegz

> <r_epik_Charging_Adjusted_Penalty>
0.0779858

> <PRICERANGE_1MG>
50 - 100

> <Name>
MolPort-010-706-723

> <i_m_Source_File_Index>
46929

> <i_lp_mmshare_version>
36015

> <PUBCHEM_EXT_DATASOURCE_URL>
https://www.molport.com

> <s_lp_Force_Field>
OPLS3

> <r_epik_Ionization_Penalty>
0.0875211

> <r_epik_State_Penalty>
0.0779858

> <IS_SC>
Yes

> <r_epik_Ionization_Penalty_Neutral>
0.0875211

> <s_m_Source_Path>
/home/mrgulotta/data_server/CADD/LIBRERIE/OTTIMIZZATE/MOLPORT/ALL_STOCK_COMPOUNDS_FILTERED_NEW

> <i_m_source_file_index>
46929

> <PUBCHEM_EXT_SUBSTANCE_URL>
https://www.molport.com/shop/molecule-link/MolPort-010-706-723

> <VERIFIED_AMOUNT_MG>
20

> <r_epik_Ionization_Penalty_Charging>
0.0

> <r_lp_Energy>
42.122

> <QC_METHOD>
NMR

> <QPhAR prediction>
6.989007341520741

> <i_epik_Tot_abs_Q>
0

> <i_epik_Tot_Q>
0

> <cdk:Title>
null

> <b_lp_Chiralities_Consistent>
1

> <s_m_entry_name>
iis-004-000-000--004-499-999_filtered.46929

> <i_f3d_flags>
0

> <PRICERANGE_5MG>
50 - 100

> <COMPOUND_STATE>
SOLID

> <s_m_entry_id>
117707

> <Molecule_Name>
MolPort-010-706-723

> <Score>
0.9467240981095703

> <BEST_LEAD_TIME>
10

> <s_lp_Variant>
MolPort-010-706-723-1

> <s_m_Source_File>
iis-004-000-000--004-499-999_filtered.sdf

> <r_lp_tautomer_probability>
1.0

> <UNVERIFIED_AMOUNT_MG>
20

$$$$
MolPort-028-885-344
XX    ILIB07022204093D

 82 87  0  0  1  0              1 V2000
   -1.9526    1.7881    4.9004 O   0  0  0  0  0
    2.7012   -3.8516   -4.7656 O   0  0  0  0  0
   -3.0381   -3.3525    4.2090 O   0  0  0  0  0
   -1.3584   -0.5444   -1.2798 N   0  0  0  0  0
   -2.4717   -5.3945    3.3301 N   0  0  0  0  0
   -3.1250   -8.1680    3.3535 N   0  0  0  0  0
   -1.4980    0.6311    4.3105 C   0  0  0  0  0
   -1.6763    2.9678    4.2461 C   0  0  0  0  0
    1.9751   -2.8916   -4.0996 C   0  0  0  0  0
   -2.6475   -0.8291   -1.7007 C   0  0  0  0  0
   -1.2285   -0.8442    0.0593 C   0  0  0  0  0
   -3.3262   -1.3745   -0.6074 C   0  0  0  0  0
   -2.4033   -1.4419    0.4819 C   0  0  0  0  0
    0.4679   -0.9783   -2.8154 C   0  0  0  0  0
   -1.8022   -1.2349    2.8096 C   0  0  0  0  0
   -2.2930   -0.0618    3.3984 C   0  0  0  0  0
   -0.2372    0.1204    4.6250 C   0  0  0  0  0
   -2.6006    3.4414    3.3066 C   0  0  0  0  0
   -0.4808    3.6396    4.5645 C   0  0  0  0  0
    2.3818   -2.4482   -2.8398 C   0  0  0  0  0
    0.8242   -2.3711   -4.7090 C   0  0  0  0  0
   -3.2773   -0.6567   -2.9434 C   0  0  0  0  0
   -4.6855   -1.7310   -0.7573 C   0  0  0  0  0
    1.6123   -1.4868   -2.1865 C   0  0  0  0  0
    0.0302   -1.3975   -4.0859 C   0  0  0  0  0
   -0.5352   -1.7764    3.1006 C   0  0  0  0  0
    0.2339   -1.0571    4.0273 C   0  0  0  0  0
   -2.3389    4.6289    2.6270 C   0  0  0  0  0
   -0.2533    4.8359    3.8682 C   0  0  0  0  0
   -4.6211   -1.0269   -3.0674 C   0  0  0  0  0
   -5.3340   -1.5474   -1.9878 C   0  0  0  0  0
   -1.1641    5.3262    2.9209 C   0  0  0  0  0
   -2.6777   -4.0430    3.2598 C   0  0  0  0  0
    2.2402   -5.1641   -4.4434 C   0  0  0  0  0
   -0.3308    0.0517   -2.1016 C   0  0  0  0  0
   -2.0410   -6.2539    2.2197 C   0  0  0  0  0
   -2.6660   -6.0898    4.6016 C   0  0  0  0  0
   -2.9902   -7.4316    2.0410 C   0  0  0  0  0
   -3.6289   -7.2559    4.4492 C   0  0  0  0  0
   -3.9600   -9.3828    3.2207 C   0  0  0  0  0
   -2.6650   -1.9512    1.8345 C   0  0  2  0  0
   -2.4219   -3.4629    1.8823 C   0  0  0  0  0
   -3.3389  -10.3516    2.2031 C   0  0  0  0  0
   -0.3391   -0.6099    0.5659 H   0  0  0  0  0
   -3.2503    0.2964    3.1582 H   0  0  0  0  0
    0.3734    0.6194    5.3183 H   0  0  0  0  0
   -3.4820    2.9024    3.1195 H   0  0  0  0  0
    0.1718    3.2382    5.2825 H   0  0  0  0  0
    3.2527   -2.8383   -2.4018 H   0  0  0  0  0
    0.5347   -2.7098   -5.6598 H   0  0  0  0  0
   -2.7407   -0.2580   -3.7531 H   0  0  0  0  0
   -5.2148   -2.1353    0.0544 H   0  0  0  0  0
    1.8832   -1.1434   -1.2319 H   0  0  0  0  0
   -0.8392   -0.9836   -4.5046 H   0  0  0  0  0
   -0.2233   -2.6632    2.6329 H   0  0  0  0  0
    1.1874   -1.4238    4.2698 H   0  0  0  0  0
   -3.0184    4.9839    1.9096 H   0  0  0  0  0
    0.6189    5.3915    4.0501 H   0  0  0  0  0
   -5.1137   -0.9150   -3.9879 H   0  0  0  0  0
   -6.3477   -1.8013   -2.0900 H   0  0  0  0  0
   -0.9534    6.2302    2.4300 H   0  0  0  0  0
    1.3857   -5.0959   -3.8370 H   0  0  0  0  0
    2.0019   -5.6782   -5.3274 H   0  0  0  0  0
    2.9940   -5.6833   -3.9289 H   0  0  0  0  0
    0.3186    0.6134   -1.4973 H   0  0  0  0  0
   -0.7748    0.6797   -2.8164 H   0  0  0  0  0
   -1.0784   -6.6242    2.4167 H   0  0  0  0  0
   -2.0260   -5.6957    1.3305 H   0  0  0  0  0
   -3.0591   -5.4214    5.3095 H   0  0  0  0  0
   -1.7443   -6.4591    4.9430 H   0  0  0  0  0
   -3.9324   -7.0808    1.7381 H   0  0  0  0  0
   -2.6083   -8.0833    1.3116 H   0  0  0  0  0
   -4.5826   -6.8975    4.1953 H   0  0  0  0  0
   -3.6845   -7.7902    5.3514 H   0  0  0  0  0
   -4.0294   -9.8633    4.1517 H   0  0  0  0  0
   -4.9206   -9.1132    2.8936 H   0  0  0  0  0
   -3.6740   -1.7938    2.0786 H   0  0  0  0  0
   -3.0632   -3.9177    1.1864 H   0  0  0  0  0
   -1.4243   -3.6409    1.6073 H   0  0  0  0  0
   -2.6967   -9.8223    1.5628 H   0  0  0  0  0
   -2.7944  -11.0915    2.7115 H   0  0  0  0  0
   -4.1011  -10.8031    1.6394 H   0  0  0  0  0
  1  7  1  0  0  0
  1  8  1  0  0  0
  2  9  1  0  0  0
  2 34  1  0  0  0
  3 33  2  0  0  0
  4 10  1  0  0  0
  4 11  1  0  0  0
  4 35  1  0  0  0
  5 33  1  0  0  0
  5 36  1  0  0  0
  5 37  1  0  0  0
  6 38  1  0  0  0
  6 39  1  0  0  0
  6 40  1  0  0  0
  7 16  2  0  0  0
  7 17  1  0  0  0
  8 18  2  0  0  0
  8 19  1  0  0  0
  9 20  2  0  0  0
  9 21  1  0  0  0
 10 12  2  0  0  0
 10 22  1  0  0  0
 11 13  2  0  0  0
 11 44  1  0  0  0
 12 13  1  0  0  0
 12 23  1  0  0  0
 13 41  1  0  0  0
 14 24  2  0  0  0
 14 25  1  0  0  0
 14 35  1  0  0  0
 15 16  1  0  0  0
 15 26  2  0  0  0
 15 41  1  0  0  0
 16 45  1  0  0  0
 17 27  2  0  0  0
 17 46  1  0  0  0
 18 28  1  0  0  0
 18 47  1  0  0  0
 19 29  2  0  0  0
 19 48  1  0  0  0
 20 24  1  0  0  0
 20 49  1  0  0  0
 21 25  2  0  0  0
 21 50  1  0  0  0
 22 30  2  0  0  0
 22 51  1  0  0  0
 23 31  2  0  0  0
 23 52  1  0  0  0
 24 53  1  0  0  0
 25 54  1  0  0  0
 26 27  1  0  0  0
 26 55  1  0  0  0
 27 56  1  0  0  0
 28 32  2  0  0  0
 28 57  1  0  0  0
 29 32  1  0  0  0
 29 58  1  0  0  0
 30 31  1  0  0  0
 30 59  1  0  0  0
 31 60  1  0  0  0
 32 61  1  0  0  0
 33 42  1  0  0  0
 34 62  1  0  0  0
 34 63  1  0  0  0
 34 64  1  0  0  0
 35 65  1  0  0  0
 35 66  1  0  0  0
 36 38  1  0  0  0
 36 67  1  0  0  0
 36 68  1  0  0  0
 37 39  1  0  0  0
 37 69  1  0  0  0
 37 70  1  0  0  0
 38 71  1  0  0  0
 38 72  1  0  0  0
 39 73  1  0  0  0
 39 74  1  0  0  0
 40 43  1  0  0  0
 40 75  1  0  0  0
 40 76  1  0  0  0
 41 42  1  0  0  0
 41 77  1  0  0  0
 42 78  1  0  0  0
 42 79  1  0  0  0
 43 80  1  0  0  0
 43 81  1  0  0  0
 43 82  1  0  0  0
M  END
> <QPhAR in domain>
True

> <s_m_source_file>
iis-005-500-000--005-999-999_filtered_optim.maegz

> <PRICERANGE_50MG>
100 - 250

> <r_epik_Charging_Adjusted_Penalty>
0.67699

> <PRICERANGE_1MG>
50 - 100

> <Name>
MolPort-028-885-344

> <i_m_Source_File_Index>
56114

> <i_lp_mmshare_version>
36015

> <PUBCHEM_EXT_DATASOURCE_URL>
https://www.molport.com

> <s_lp_Force_Field>
OPLS3

> <r_epik_Ionization_Penalty>
0.340676

> <r_epik_State_Penalty>
0.336314

> <IS_SC>
Yes

> <r_epik_Ionization_Penalty_Neutral>
8.87966E-12

> <s_m_Source_Path>
/home/mrgulotta/data_server/CADD/LIBRERIE/OTTIMIZZATE/MOLPORT/ALL_STOCK_COMPOUNDS_FILTERED_NEW

> <i_m_source_file_index>
56114

> <PUBCHEM_EXT_SUBSTANCE_URL>
https://www.molport.com/shop/molecule-link/MolPort-028-885-344

> <VERIFIED_AMOUNT_MG>
50

> <r_epik_Ionization_Penalty_Charging>
0.340676

> <r_lp_Energy>
69.3418

> <QC_METHOD>
LCMS

> <QPhAR prediction>
6.989007341520741

> <i_epik_Tot_abs_Q>
1

> <i_epik_Tot_Q>
1

> <cdk:Title>
null

> <b_lp_Chiralities_Consistent>
1

> <s_m_entry_name>
iis-005-500-000--005-999-999_filtered.56114

> <i_f3d_flags>
0

> <PRICERANGE_5MG>
50 - 100

> <COMPOUND_STATE>
SOLID

> <s_m_entry_id>
201538

> <Molecule_Name>
MolPort-028-885-344

> <Score>
0.9351554918749881

> <BEST_LEAD_TIME>
10

> <s_lp_Variant>
MolPort-028-885-344-1

> <s_m_Source_File>
iis-005-500-000--005-999-999_filtered.sdf

> <r_lp_tautomer_probability>
1.0

> <UNVERIFIED_AMOUNT_MG>
50

$$$$
MolPort-028-889-307
XX    ILIB07022204093D

 83 87  0  0  1  0              1 V2000
    0.6360   -1.8901    4.7910 O   0  0  0  0  0
   -0.7651   -2.4824   -6.2305 O   0  0  0  0  0
   -2.3643   -0.2023   -0.4805 N   0  0  0  0  0
   -1.9648   -0.7986   -7.2266 N   0  0  0  0  0
   -3.5557   -0.1418   -9.4961 N   0  0  0  0  0
   -0.0132   -1.2563    3.7578 C   0  0  0  0  0
   -3.5127   -0.9661   -0.6111 C   0  0  0  0  0
   -1.4971   -0.4852   -1.5132 C   0  0  0  0  0
   -3.3838   -1.7065   -1.7891 C   0  0  0  0  0
   -2.1357   -1.3477   -2.3867 C   0  0  0  0  0
   -1.3740    0.0126    1.7231 C   0  0  0  0  0
   -0.0900   -1.8486   -3.5645 C   0  0  0  0  0
    2.6602   -1.7759   -3.4346 C   0  0  0  0  0
    0.7178   -0.6567    2.7295 C   0  0  0  0  0
   -1.4155   -1.2266    3.7578 C   0  0  0  0  0
   -4.6543   -1.0728    0.2002 C   0  0  0  0  0
   -4.4160   -2.6016   -2.1484 C   0  0  0  0  0
    0.0271   -0.0096    1.7056 C   0  0  0  0  0
   -2.1426   -0.5913    2.7402 C   0  0  0  0  0
    0.5876   -0.7002   -3.9951 C   0  0  0  0  0
    0.5620   -2.9883   -3.0547 C   0  0  0  0  0
    1.9800   -0.6648   -3.9395 C   0  0  0  0  0
    1.9624   -2.9141   -3.0059 C   0  0  0  0  0
   -5.6660   -1.9590   -0.1843 C   0  0  0  0  0
   -5.5527   -2.7324   -1.3394 C   0  0  0  0  0
   -1.5273   -1.5225   -6.1504 C   0  0  0  0  0
    0.8555   -3.2705    4.4961 C   0  0  0  0  0
   -2.0869    0.6956    0.6167 C   0  0  0  0  0
   -2.8740    0.3527   -7.1699 C   0  0  0  0  0
   -1.5034   -1.1489   -8.5664 C   0  0  0  0  0
   -4.0605    0.1584   -8.1016 C   0  0  0  0  0
   -2.6748   -1.3706   -9.5117 C   0  0  0  0  0
   -4.6621   -0.2452  -10.4727 C   0  0  0  0  0
   -1.5737   -1.8647   -3.6416 C   0  0  2  0  0
    4.1426   -1.7686   -3.3428 C   0  0  0  0  0
   -2.0771   -1.0317   -4.8242 C   0  0  0  0  0
   -4.1133   -0.5505  -11.8750 C   0  0  0  0  0
    4.7852   -2.8994   -4.1738 C   0  0  0  0  0
    4.5762   -1.9512   -1.8740 C   0  0  0  0  0
    4.6992   -0.4277   -3.8643 C   0  0  0  0  0
   -0.5381   -0.0577   -1.5255 H   0  0  0  0  0
    1.7669   -0.6987    2.7376 H   0  0  0  0  0
   -1.9504   -1.6884    4.5344 H   0  0  0  0  0
   -4.7340   -0.4947    1.0731 H   0  0  0  0  0
   -4.3337   -3.1730   -3.0255 H   0  0  0  0  0
    0.5499    0.4591    0.9249 H   0  0  0  0  0
   -3.1910   -0.5466    2.7026 H   0  0  0  0  0
    0.0467    0.1243   -4.3558 H   0  0  0  0  0
    0.0004   -3.8186   -2.7422 H   0  0  0  0  0
    2.5176    0.1752   -4.2679 H   0  0  0  0  0
    2.4884   -3.7436   -2.6349 H   0  0  0  0  0
   -6.5328   -2.0521    0.4010 H   0  0  0  0  0
   -6.3108   -3.4087   -1.6046 H   0  0  0  0  0
    1.8488   -3.4083    4.1848 H   0  0  0  0  0
    0.2037   -3.5728    3.7304 H   0  0  0  0  0
    0.6754   -3.8451    5.3563 H   0  0  0  0  0
   -1.4863    1.4874    0.2777 H   0  0  0  0  0
   -2.9896    1.0774    0.9933 H   0  0  0  0  0
   -3.2318    0.4682   -6.1895 H   0  0  0  0  0
   -2.3583    1.2205   -7.4588 H   0  0  0  0  0
   -0.9091   -0.3711   -8.9464 H   0  0  0  0  0
   -0.9374   -2.0321   -8.5219 H   0  0  0  0  0
   -4.6404    1.0335   -8.1201 H   0  0  0  0  0
   -4.6473   -0.6432   -7.7617 H   0  0  0  0  0
   -2.3188   -1.5337  -10.4860 H   0  0  0  0  0
   -3.2312   -2.2041   -9.1982 H   0  0  0  0  0
   -5.1889    0.6626  -10.5022 H   0  0  0  0  0
   -5.3122   -1.0178  -10.1846 H   0  0  0  0  0
   -1.9053   -2.8492   -3.7942 H   0  0  0  0  0
   -1.7814   -0.0361   -4.6696 H   0  0  0  0  0
   -3.1255   -1.0873   -4.8379 H   0  0  0  0  0
   -4.0079    0.3454  -12.4123 H   0  0  0  0  0
   -4.7791   -1.1857  -12.3808 H   0  0  0  0  0
   -3.1779   -1.0199  -11.7902 H   0  0  0  0  0
    5.1563   -3.6402   -3.5288 H   0  0  0  0  0
    4.0636   -3.3192   -4.8106 H   0  0  0  0  0
    5.5729   -2.5081   -4.7473 H   0  0  0  0  0
    4.5476   -1.0237   -1.3827 H   0  0  0  0  0
    3.9227   -2.6203   -1.3968 H   0  0  0  0  0
    5.5535   -2.3339   -1.8426 H   0  0  0  0  0
    5.4991   -0.1210   -3.2572 H   0  0  0  0  0
    5.0355   -0.5486   -4.8516 H   0  0  0  0  0
    3.9419    0.2991   -3.8391 H   0  0  0  0  0
  1  6  1  0  0  0
  1 27  1  0  0  0
  2 26  2  0  0  0
  3  7  1  0  0  0
  3  8  1  0  0  0
  3 28  1  0  0  0
  4 26  1  0  0  0
  4 29  1  0  0  0
  4 30  1  0  0  0
  5 31  1  0  0  0
  5 32  1  0  0  0
  5 33  1  0  0  0
  6 14  2  0  0  0
  6 15  1  0  0  0
  7  9  2  0  0  0
  7 16  1  0  0  0
  8 10  2  0  0  0
  8 41  1  0  0  0
  9 10  1  0  0  0
  9 17  1  0  0  0
 10 34  1  0  0  0
 11 18  2  0  0  0
 11 19  1  0  0  0
 11 28  1  0  0  0
 12 20  2  0  0  0
 12 21  1  0  0  0
 12 34  1  0  0  0
 13 22  2  0  0  0
 13 23  1  0  0  0
 13 35  1  0  0  0
 14 18  1  0  0  0
 14 42  1  0  0  0
 15 19  2  0  0  0
 15 43  1  0  0  0
 16 24  2  0  0  0
 16 44  1  0  0  0
 17 25  2  0  0  0
 17 45  1  0  0  0
 18 46  1  0  0  0
 19 47  1  0  0  0
 20 22  1  0  0  0
 20 48  1  0  0  0
 21 23  2  0  0  0
 21 49  1  0  0  0
 22 50  1  0  0  0
 23 51  1  0  0  0
 24 25  1  0  0  0
 24 52  1  0  0  0
 25 53  1  0  0  0
 26 36  1  0  0  0
 27 54  1  0  0  0
 27 55  1  0  0  0
 27 56  1  0  0  0
 28 57  1  0  0  0
 28 58  1  0  0  0
 29 31  1  0  0  0
 29 59  1  0  0  0
 29 60  1  0  0  0
 30 32  1  0  0  0
 30 61  1  0  0  0
 30 62  1  0  0  0
 31 63  1  0  0  0
 31 64  1  0  0  0
 32 65  1  0  0  0
 32 66  1  0  0  0
 33 37  1  0  0  0
 33 67  1  0  0  0
 33 68  1  0  0  0
 34 36  1  0  0  0
 34 69  1  0  0  0
 35 38  1  0  0  0
 35 39  1  0  0  0
 35 40  1  0  0  0
 36 70  1  0  0  0
 36 71  1  0  0  0
 37 72  1  0  0  0
 37 73  1  0  0  0
 37 74  1  0  0  0
 38 75  1  0  0  0
 38 76  1  0  0  0
 38 77  1  0  0  0
 39 78  1  0  0  0
 39 79  1  0  0  0
 39 80  1  0  0  0
 40 81  1  0  0  0
 40 82  1  0  0  0
 40 83  1  0  0  0
M  END
> <QPhAR in domain>
True

> <s_m_source_file>
iis-005-500-000--005-999-999_filtered_optim.maegz

> <PRICERANGE_50MG>
100 - 250

> <r_epik_Charging_Adjusted_Penalty>
0.661814

> <PRICERANGE_1MG>
50 - 100

> <Name>
MolPort-028-889-307

> <i_m_Source_File_Index>
56341

> <i_lp_mmshare_version>
36015

> <PUBCHEM_EXT_DATASOURCE_URL>
https://www.molport.com

> <s_lp_Force_Field>
OPLS3

> <r_epik_Ionization_Penalty>
0.333295

> <r_epik_State_Penalty>
0.328518

> <IS_SC>
Yes

> <r_epik_Ionization_Penalty_Neutral>
8.87966E-12

> <s_m_Source_Path>
/home/mrgulotta/data_server/CADD/LIBRERIE/OTTIMIZZATE/MOLPORT/ALL_STOCK_COMPOUNDS_FILTERED_NEW

> <i_m_source_file_index>
56341

> <PUBCHEM_EXT_SUBSTANCE_URL>
https://www.molport.com/shop/molecule-link/MolPort-028-889-307

> <VERIFIED_AMOUNT_MG>
75

> <r_epik_Ionization_Penalty_Charging>
0.333295

> <r_lp_Energy>
57.6844

> <QC_METHOD>
LCMS

> <QPhAR prediction>
6.989007341520741

> <i_epik_Tot_abs_Q>
1

> <i_epik_Tot_Q>
1

> <cdk:Title>
null

> <b_lp_Chiralities_Consistent>
1

> <s_m_entry_name>
iis-005-500-000--005-999-999_filtered.56341

> <i_f3d_flags>
0

> <PRICERANGE_5MG>
50 - 100

> <COMPOUND_STATE>
SOLID

> <s_m_entry_id>
201765

> <Molecule_Name>
MolPort-028-889-307

> <Score>
0.9312676318011043

> <BEST_LEAD_TIME>
10

> <s_lp_Variant>
MolPort-028-889-307-1

> <s_m_Source_File>
iis-005-500-000--005-999-999_filtered.sdf

> <r_lp_tautomer_probability>
1.0

> <UNVERIFIED_AMOUNT_MG>
75

$$$$
MolPort-008-372-384
XX    ILIB07022204093D

 40 43  0  0  1  0              1 V2000
   -0.0518   -2.3262   -5.3633 S   0  0  0  0  0
   -4.1816   -1.7837    2.3994 O   0  0  0  0  0
   -6.3613   -3.1982    1.8965 O   0  0  0  0  0
   -2.2676   -0.9614   -3.0107 N   0  0  0  0  0
   -3.2686   -1.6348   -3.6553 N   0  0  0  0  0
   -3.5537   -1.5527    0.0201 N   0  0  0  0  0
   -1.6895   -0.4287   -0.6223 N   0  0  0  0  0
   -6.9141   -3.3809    4.1211 N   0  0  0  0  0
   -0.0922   -1.2827   -4.0020 C   0  0  0  0  0
    1.4614   -2.9902   -4.9121 C   0  0  0  0  0
   -3.0674   -1.0542    2.7480 C   0  0  0  0  0
   -2.3770   -0.9341   -1.6567 C   0  0  0  0  0
   -2.4355   -0.8240    0.4026 C   0  0  0  0  0
   -3.4932   -1.6113   -1.3384 C   0  0  0  0  0
   -4.0117   -2.0264   -2.5918 C   0  0  0  0  0
   -2.1660   -0.5569    1.7876 C   0  0  0  0  0
    1.0244   -1.4629   -3.2158 C   0  0  0  0  0
    1.9019   -2.4658   -3.7129 C   0  0  0  0  0
   -2.7529   -0.7620    4.0840 C   0  0  0  0  0
   -1.0269    0.1904    2.1123 C   0  0  0  0  0
   -1.6162   -0.0180    4.4316 C   0  0  0  0  0
   -0.7410    0.4561    3.4512 C   0  0  0  0  0
   -6.1230   -2.9590    3.0762 C   0  0  0  0  0
   -4.9219   -2.1660    3.5459 C   0  0  0  0  0
   -1.2139   -0.3553   -3.7910 C   0  0  0  0  0
   -4.1918   -1.9032    0.7202 H   0  0  0  0  0
   -6.6608   -3.1506    5.0713 H   0  0  0  0  0
   -7.7477   -3.9207    3.9374 H   0  0  0  0  0
    1.9271   -3.7018   -5.5280 H   0  0  0  0  0
   -4.8868   -2.5872   -2.7408 H   0  0  0  0  0
    1.1548   -0.8851   -2.3488 H   0  0  0  0  0
    2.7915   -2.8185   -3.2809 H   0  0  0  0  0
   -3.3765   -1.1031    4.8568 H   0  0  0  0  0
   -0.3971    0.5451    1.3507 H   0  0  0  0  0
   -1.4131    0.1898    5.4406 H   0  0  0  0  0
    0.1184    1.0029    3.7060 H   0  0  0  0  0
   -4.3184   -2.7545    4.1720 H   0  0  0  0  0
   -5.2319   -1.3074    4.0647 H   0  0  0  0  0
   -1.5911   -0.0736   -4.7295 H   0  0  0  0  0
   -0.8516    0.4935   -3.2903 H   0  0  0  0  0
  1  9  1  0  0  0
  1 10  1  0  0  0
  2 11  1  0  0  0
  2 24  1  0  0  0
  3 23  2  0  0  0
  4  5  1  0  0  0
  4 12  1  0  0  0
  4 25  1  0  0  0
  5 15  2  0  0  0
  6 13  1  0  0  0
  6 14  1  0  0  0
  6 26  1  0  0  0
  7 12  1  0  0  0
  7 13  2  0  0  0
  8 23  1  0  0  0
  8 27  1  0  0  0
  8 28  1  0  0  0
  9 17  2  0  0  0
  9 25  1  0  0  0
 10 18  2  0  0  0
 10 29  1  0  0  0
 11 16  2  0  0  0
 11 19  1  0  0  0
 12 14  2  0  0  0
 13 16  1  0  0  0
 14 15  1  0  0  0
 15 30  1  0  0  0
 16 20  1  0  0  0
 17 18  1  0  0  0
 17 31  1  0  0  0
 18 32  1  0  0  0
 19 21  2  0  0  0
 19 33  1  0  0  0
 20 22  2  0  0  0
 20 34  1  0  0  0
 21 22  1  0  0  0
 21 35  1  0  0  0
 22 36  1  0  0  0
 23 24  1  0  0  0
 24 37  1  0  0  0
 24 38  1  0  0  0
 25 39  1  0  0  0
 25 40  1  0  0  0
M  END
> <QPhAR in domain>
True

> <s_m_source_file>
iis-003-500-000--003-999-999_filtered_optim.maegz

> <r_epik_Charging_Adjusted_Penalty>
1.48941E-4

> <PRICERANGE_1MG>
< 50

> <Name>
MolPort-008-372-384

> <i_m_Source_File_Index>
6842

> <i_lp_mmshare_version>
36015

> <PUBCHEM_EXT_DATASOURCE_URL>
https://www.molport.com

> <s_lp_Force_Field>
OPLS3

> <r_epik_Ionization_Penalty>
1.61639E-4

> <r_epik_State_Penalty>
0.0

> <IS_SC>
Yes

> <r_epik_Ionization_Penalty_Neutral>
1.26984E-5

> <s_m_Source_Path>
/home/mrgulotta/data_server/CADD/LIBRERIE/OTTIMIZZATE/MOLPORT/ALL_STOCK_COMPOUNDS_FILTERED_NEW

> <i_m_source_file_index>
6842

> <PUBCHEM_EXT_SUBSTANCE_URL>
https://www.molport.com/shop/molecule-link/MolPort-008-372-384

> <VERIFIED_AMOUNT_MG>
1

> <r_epik_Ionization_Penalty_Charging>
1.48941E-4

> <r_lp_Energy>
22.133

> <QC_METHOD>
LCMS

> <QPhAR prediction>
6.989007341520741

> <i_epik_Tot_abs_Q>
0

> <i_epik_Tot_Q>
0

> <cdk:Title>
null

> <b_lp_Chiralities_Consistent>
1

> <s_m_entry_name>
iis-003-500-000--003-999-999_filtered.6842

> <i_f3d_flags>
0

> <COMPOUND_STATE>
FILM

> <s_m_entry_id>
6842

> <Score>
0.9542599777961286

> <Molecule_Name>
MolPort-008-372-384

> <BEST_LEAD_TIME>
12

> <s_lp_Variant>
MolPort-008-372-384-1

> <s_m_Source_File>
iis-003-500-000--003-999-999_filtered.sdf

> <r_lp_tautomer_probability>
1.0

> <UNVERIFIED_AMOUNT_MG>
1.0

$$$$
MolPort-009-262-379
XX    ILIB07022204093D

 47 49  0  0  1  0              1 V2000
    5.2988   -0.8591   -2.0342 S   0  0  0  0  0
    6.2207    0.2262   -2.3047 O   0  0  0  0  0
    4.5762   -0.9229   -0.7791 O   0  0  0  0  0
   -1.2769   -1.0044   -4.3926 O   0  0  0  0  0
   -3.1484   -0.7703    0.2195 N   0  0  0  0  0
    0.0661    0.1179    3.8887 N   0  0  0  0  0
    4.1738   -0.9954   -3.3145 N   0  0  0  0  0
    0.0448   -2.4707   -3.1982 N   0  0  0  0  0
   -3.8203   -1.0532   -0.9126 C   0  0  0  0  0
   -1.7974   -0.7654    0.1855 C   0  0  0  0  0
    0.2830   -1.0493    3.2432 C   0  0  0  0  0
   -0.7642    1.0156    3.3057 C   0  0  0  0  0
   -3.1572   -1.3359   -2.1250 C   0  0  0  0  0
   -1.1587   -0.4695    1.4370 C   0  0  0  0  0
   -1.7485   -1.2944   -2.1162 C   0  0  0  0  0
   -5.2148   -1.0688   -0.8933 C   0  0  0  0  0
   -1.0513   -1.0239   -0.9438 C   0  0  0  0  0
   -0.2959   -1.3867    2.0322 C   0  0  0  0  0
   -1.4004    0.7439    2.0928 C   0  0  0  0  0
   -3.9150   -1.6343   -3.2744 C   0  0  0  0  0
   -5.9668   -1.3560   -2.0371 C   0  0  0  0  0
   -5.3047   -1.6450   -3.2285 C   0  0  0  0  0
    6.1855   -2.3896   -2.2158 C   0  0  0  0  0
   -1.0005   -1.5698   -3.3359 C   0  0  0  0  0
    3.0234   -1.9004   -3.1562 C   0  0  0  0  0
    0.9038   -2.8223   -4.2930 C   0  0  0  0  0
    2.1211   -1.9004   -4.3926 C   0  0  0  0  0
    4.3048   -0.4602   -4.1610 H   0  0  0  0  0
    0.2230   -2.9046   -2.3037 H   0  0  0  0  0
    0.9259   -1.7677    3.6592 H   0  0  0  0  0
   -0.9425    1.9421    3.7664 H   0  0  0  0  0
   -5.7299   -0.8610   -0.0022 H   0  0  0  0  0
   -0.0025   -1.0110   -0.8945 H   0  0  0  0  0
   -0.0803   -2.3130    1.5872 H   0  0  0  0  0
   -2.0576    1.4484    1.6753 H   0  0  0  0  0
   -3.4310   -1.8523   -4.1803 H   0  0  0  0  0
   -7.0158   -1.3519   -1.9905 H   0  0  0  0  0
   -5.8568   -1.8711   -4.0925 H   0  0  0  0  0
    6.0421   -2.9808   -1.3600 H   0  0  0  0  0
    5.8288   -2.9028   -3.0595 H   0  0  0  0  0
    7.2092   -2.1890   -2.3351 H   0  0  0  0  0
    3.3676   -2.8802   -3.0010 H   0  0  0  0  0
    2.4497   -1.5962   -2.3311 H   0  0  0  0  0
    0.3686   -2.7538   -5.1938 H   0  0  0  0  0
    1.2493   -3.8055   -4.1650 H   0  0  0  0  0
    2.6731   -2.2145   -5.2287 H   0  0  0  0  0
    1.7553   -0.9303   -4.5590 H   0  0  0  0  0
  1  2  2  0  0  0
  1  3  2  0  0  0
  1  7  1  0  0  0
  1 23  1  0  0  0
  4 24  2  0  0  0
  5  9  2  0  0  0
  5 10  1  0  0  0
  6 11  2  0  0  0
  6 12  1  0  0  0
  7 25  1  0  0  0
  7 28  1  0  0  0
  8 24  1  0  0  0
  8 26  1  0  0  0
  8 29  1  0  0  0
  9 13  1  0  0  0
  9 16  1  0  0  0
 10 14  1  0  0  0
 10 17  2  0  0  0
 11 18  1  0  0  0
 11 30  1  0  0  0
 12 19  2  0  0  0
 12 31  1  0  0  0
 13 15  2  0  0  0
 13 20  1  0  0  0
 14 18  2  0  0  0
 14 19  1  0  0  0
 15 17  1  0  0  0
 15 24  1  0  0  0
 16 21  2  0  0  0
 16 32  1  0  0  0
 17 33  1  0  0  0
 18 34  1  0  0  0
 19 35  1  0  0  0
 20 22  2  0  0  0
 20 36  1  0  0  0
 21 22  1  0  0  0
 21 37  1  0  0  0
 22 38  1  0  0  0
 23 39  1  0  0  0
 23 40  1  0  0  0
 23 41  1  0  0  0
 25 27  1  0  0  0
 25 42  1  0  0  0
 25 43  1  0  0  0
 26 27  1  0  0  0
 26 44  1  0  0  0
 26 45  1  0  0  0
 27 46  1  0  0  0
 27 47  1  0  0  0
M  END
> <QPhAR in domain>
True

> <s_m_source_file>
iis-003-500-000--003-999-999_filtered_optim.maegz

> <PRICERANGE_50MG>
100 - 250

> <r_epik_Charging_Adjusted_Penalty>
0.0

> <PRICERANGE_1MG>
50 - 100

> <Name>
MolPort-009-262-379

> <i_m_Source_File_Index>
48302

> <i_lp_mmshare_version>
36015

> <PUBCHEM_EXT_DATASOURCE_URL>
https://www.molport.com

> <s_lp_Force_Field>
OPLS3

> <r_epik_Ionization_Penalty>
0.00190568

> <r_epik_State_Penalty>
0.0

> <IS_SC>
Yes

> <r_epik_Ionization_Penalty_Neutral>
0.00190568

> <s_m_Source_Path>
/home/mrgulotta/data_server/CADD/LIBRERIE/OTTIMIZZATE/MOLPORT/ALL_STOCK_COMPOUNDS_FILTERED_NEW

> <i_m_source_file_index>
48302

> <PUBCHEM_EXT_SUBSTANCE_URL>
https://www.molport.com/shop/molecule-link/MolPort-009-262-379

> <VERIFIED_AMOUNT_MG>
300

> <r_epik_Ionization_Penalty_Charging>
0.0

> <r_lp_Energy>
36.2141

> <QC_METHOD>
LCMS

> <QPhAR prediction>
6.989007341520741

> <i_epik_Tot_abs_Q>
0

> <i_epik_Tot_Q>
0

> <cdk:Title>
null

> <b_lp_Chiralities_Consistent>
1

> <s_m_entry_name>
iis-003-500-000--003-999-999_filtered.48302

> <i_f3d_flags>
0

> <PRICERANGE_5MG>
50 - 100

> <COMPOUND_STATE>
SOLID

> <s_m_entry_id>
48302

> <Molecule_Name>
MolPort-009-262-379

> <Score>
0.929920001339938

> <BEST_LEAD_TIME>
10

> <s_lp_Variant>
MolPort-009-262-379-1

> <s_m_Source_File>
iis-003-500-000--003-999-999_filtered.sdf

> <r_lp_tautomer_probability>
1.0

> <UNVERIFIED_AMOUNT_MG>
300.0

$$$$
MolPort-028-889-307
XX    ILIB07022204093D

 83 87  0  0  1  0              1 V2000
    0.6360   -1.8901    4.7910 O   0  0  0  0  0
   -0.7651   -2.4824   -6.2305 O   0  0  0  0  0
   -2.3643   -0.2023   -0.4805 N   0  0  0  0  0
   -1.9648   -0.7986   -7.2266 N   0  0  0  0  0
   -3.5557   -0.1418   -9.4961 N   0  0  0  0  0
   -0.0132   -1.2563    3.7578 C   0  0  0  0  0
   -3.5127   -0.9661   -0.6111 C   0  0  0  0  0
   -1.4971   -0.4852   -1.5132 C   0  0  0  0  0
   -3.3838   -1.7065   -1.7891 C   0  0  0  0  0
   -2.1357   -1.3477   -2.3867 C   0  0  0  0  0
   -1.3740    0.0126    1.7231 C   0  0  0  0  0
   -0.0900   -1.8486   -3.5645 C   0  0  0  0  0
    2.6602   -1.7759   -3.4346 C   0  0  0  0  0
    0.7178   -0.6567    2.7295 C   0  0  0  0  0
   -1.4155   -1.2266    3.7578 C   0  0  0  0  0
   -4.6543   -1.0728    0.2002 C   0  0  0  0  0
   -4.4160   -2.6016   -2.1484 C   0  0  0  0  0
    0.0271   -0.0096    1.7056 C   0  0  0  0  0
   -2.1426   -0.5913    2.7402 C   0  0  0  0  0
    0.5876   -0.7002   -3.9951 C   0  0  0  0  0
    0.5620   -2.9883   -3.0547 C   0  0  0  0  0
    1.9800   -0.6648   -3.9395 C   0  0  0  0  0
    1.9624   -2.9141   -3.0059 C   0  0  0  0  0
   -5.6660   -1.9590   -0.1843 C   0  0  0  0  0
   -5.5527   -2.7324   -1.3394 C   0  0  0  0  0
   -1.5273   -1.5225   -6.1504 C   0  0  0  0  0
    0.8555   -3.2705    4.4961 C   0  0  0  0  0
   -2.0869    0.6956    0.6167 C   0  0  0  0  0
   -2.8740    0.3527   -7.1699 C   0  0  0  0  0
   -1.5034   -1.1489   -8.5664 C   0  0  0  0  0
   -4.0605    0.1584   -8.1016 C   0  0  0  0  0
   -2.6748   -1.3706   -9.5117 C   0  0  0  0  0
   -4.6621   -0.2452  -10.4727 C   0  0  0  0  0
   -1.5737   -1.8647   -3.6416 C   0  0  2  0  0
    4.1426   -1.7686   -3.3428 C   0  0  0  0  0
   -2.0771   -1.0317   -4.8242 C   0  0  0  0  0
   -4.1133   -0.5505  -11.8750 C   0  0  0  0  0
    4.7852   -2.8994   -4.1738 C   0  0  0  0  0
    4.5762   -1.9512   -1.8740 C   0  0  0  0  0
    4.6992   -0.4277   -3.8643 C   0  0  0  0  0
   -0.5381   -0.0577   -1.5255 H   0  0  0  0  0
    1.7669   -0.6987    2.7376 H   0  0  0  0  0
   -1.9504   -1.6884    4.5344 H   0  0  0  0  0
   -4.7340   -0.4947    1.0731 H   0  0  0  0  0
   -4.3337   -3.1730   -3.0255 H   0  0  0  0  0
    0.5499    0.4591    0.9249 H   0  0  0  0  0
   -3.1910   -0.5466    2.7026 H   0  0  0  0  0
    0.0467    0.1243   -4.3558 H   0  0  0  0  0
    0.0004   -3.8186   -2.7422 H   0  0  0  0  0
    2.5176    0.1752   -4.2679 H   0  0  0  0  0
    2.4884   -3.7436   -2.6349 H   0  0  0  0  0
   -6.5328   -2.0521    0.4010 H   0  0  0  0  0
   -6.3108   -3.4087   -1.6046 H   0  0  0  0  0
    1.8488   -3.4083    4.1848 H   0  0  0  0  0
    0.2037   -3.5728    3.7304 H   0  0  0  0  0
    0.6754   -3.8451    5.3563 H   0  0  0  0  0
   -1.4863    1.4874    0.2777 H   0  0  0  0  0
   -2.9896    1.0774    0.9933 H   0  0  0  0  0
   -3.2318    0.4682   -6.1895 H   0  0  0  0  0
   -2.3583    1.2205   -7.4588 H   0  0  0  0  0
   -0.9091   -0.3711   -8.9464 H   0  0  0  0  0
   -0.9374   -2.0321   -8.5219 H   0  0  0  0  0
   -4.6404    1.0335   -8.1201 H   0  0  0  0  0
   -4.6473   -0.6432   -7.7617 H   0  0  0  0  0
   -2.3188   -1.5337  -10.4860 H   0  0  0  0  0
   -3.2312   -2.2041   -9.1982 H   0  0  0  0  0
   -5.1889    0.6626  -10.5022 H   0  0  0  0  0
   -5.3122   -1.0178  -10.1846 H   0  0  0  0  0
   -1.9053   -2.8492   -3.7942 H   0  0  0  0  0
   -1.7814   -0.0361   -4.6696 H   0  0  0  0  0
   -3.1255   -1.0873   -4.8379 H   0  0  0  0  0
   -4.0079    0.3454  -12.4123 H   0  0  0  0  0
   -4.7791   -1.1857  -12.3808 H   0  0  0  0  0
   -3.1779   -1.0199  -11.7902 H   0  0  0  0  0
    5.1563   -3.6402   -3.5288 H   0  0  0  0  0
    4.0636   -3.3192   -4.8106 H   0  0  0  0  0
    5.5729   -2.5081   -4.7473 H   0  0  0  0  0
    4.5476   -1.0237   -1.3827 H   0  0  0  0  0
    3.9227   -2.6203   -1.3968 H   0  0  0  0  0
    5.5535   -2.3339   -1.8426 H   0  0  0  0  0
    5.4991   -0.1210   -3.2572 H   0  0  0  0  0
    5.0355   -0.5486   -4.8516 H   0  0  0  0  0
    3.9419    0.2991   -3.8391 H   0  0  0  0  0
  1  6  1  0  0  0
  1 27  1  0  0  0
  2 26  2  0  0  0
  3  7  1  0  0  0
  3  8  1  0  0  0
  3 28  1  0  0  0
  4 26  1  0  0  0
  4 29  1  0  0  0
  4 30  1  0  0  0
  5 31  1  0  0  0
  5 32  1  0  0  0
  5 33  1  0  0  0
  6 14  2  0  0  0
  6 15  1  0  0  0
  7  9  2  0  0  0
  7 16  1  0  0  0
  8 10  2  0  0  0
  8 41  1  0  0  0
  9 10  1  0  0  0
  9 17  1  0  0  0
 10 34  1  0  0  0
 11 18  2  0  0  0
 11 19  1  0  0  0
 11 28  1  0  0  0
 12 20  2  0  0  0
 12 21  1  0  0  0
 12 34  1  0  0  0
 13 22  2  0  0  0
 13 23  1  0  0  0
 13 35  1  0  0  0
 14 18  1  0  0  0
 14 42  1  0  0  0
 15 19  2  0  0  0
 15 43  1  0  0  0
 16 24  2  0  0  0
 16 44  1  0  0  0
 17 25  2  0  0  0
 17 45  1  0  0  0
 18 46  1  0  0  0
 19 47  1  0  0  0
 20 22  1  0  0  0
 20 48  1  0  0  0
 21 23  2  0  0  0
 21 49  1  0  0  0
 22 50  1  0  0  0
 23 51  1  0  0  0
 24 25  1  0  0  0
 24 52  1  0  0  0
 25 53  1  0  0  0
 26 36  1  0  0  0
 27 54  1  0  0  0
 27 55  1  0  0  0
 27 56  1  0  0  0
 28 57  1  0  0  0
 28 58  1  0  0  0
 29 31  1  0  0  0
 29 59  1  0  0  0
 29 60  1  0  0  0
 30 32  1  0  0  0
 30 61  1  0  0  0
 30 62  1  0  0  0
 31 63  1  0  0  0
 31 64  1  0  0  0
 32 65  1  0  0  0
 32 66  1  0  0  0
 33 37  1  0  0  0
 33 67  1  0  0  0
 33 68  1  0  0  0
 34 36  1  0  0  0
 34 69  1  0  0  0
 35 38  1  0  0  0
 35 39  1  0  0  0
 35 40  1  0  0  0
 36 70  1  0  0  0
 36 71  1  0  0  0
 37 72  1  0  0  0
 37 73  1  0  0  0
 37 74  1  0  0  0
 38 75  1  0  0  0
 38 76  1  0  0  0
 38 77  1  0  0  0
 39 78  1  0  0  0
 39 79  1  0  0  0
 39 80  1  0  0  0
 40 81  1  0  0  0
 40 82  1  0  0  0
 40 83  1  0  0  0
M  END
> <QPhAR in domain>
True

> <s_m_source_file>
iis-005-500-000--005-999-999_filtered_optim.maegz

> <PRICERANGE_50MG>
100 - 250

> <r_epik_Charging_Adjusted_Penalty>
0.661814

> <PRICERANGE_1MG>
50 - 100

> <Name>
MolPort-028-889-307

> <i_m_Source_File_Index>
56341

> <i_lp_mmshare_version>
36015

> <PUBCHEM_EXT_DATASOURCE_URL>
https://www.molport.com

> <s_lp_Force_Field>
OPLS3

> <r_epik_Ionization_Penalty>
0.333295

> <r_epik_State_Penalty>
0.328518

> <IS_SC>
Yes

> <r_epik_Ionization_Penalty_Neutral>
8.87966E-12

> <s_m_Source_Path>
/home/mrgulotta/data_server/CADD/LIBRERIE/OTTIMIZZATE/MOLPORT/ALL_STOCK_COMPOUNDS_FILTERED_NEW

> <i_m_source_file_index>
56341

> <PUBCHEM_EXT_SUBSTANCE_URL>
https://www.molport.com/shop/molecule-link/MolPort-028-889-307

> <VERIFIED_AMOUNT_MG>
75

> <r_epik_Ionization_Penalty_Charging>
0.333295

> <r_lp_Energy>
57.6844

> <QC_METHOD>
LCMS

> <QPhAR prediction>
6.989007341520741

> <i_epik_Tot_abs_Q>
1

> <i_epik_Tot_Q>
1

> <cdk:Title>
null

> <b_lp_Chiralities_Consistent>
1

> <s_m_entry_name>
iis-005-500-000--005-999-999_filtered.56341

> <i_f3d_flags>
0

> <PRICERANGE_5MG>
50 - 100

> <COMPOUND_STATE>
SOLID

> <s_m_entry_id>
201765

> <Molecule_Name>
MolPort-028-889-307

> <Score>
0.9312676318011043

> <BEST_LEAD_TIME>
10

> <s_lp_Variant>
MolPort-028-889-307-1

> <s_m_Source_File>
iis-005-500-000--005-999-999_filtered.sdf

> <r_lp_tautomer_probability>
1.0

> <UNVERIFIED_AMOUNT_MG>
75

$$$$
MolPort-045-929-441
XX    ILIB07022204093D

 46 49  0  0  1  0              1 V2000
   -1.1450    0.4365    0.7144 S   0  0  0  0  0
    0.4926   -2.0361    6.2637 S   0  0  0  0  0
   -2.5518    0.7795    0.7817 O   0  0  0  0  0
   -0.1591    1.4409    0.3669 O   0  0  0  0  0
    1.3511   -3.1660    5.9629 O   0  0  0  0  0
    0.9509   -0.9326    7.0859 O   0  0  0  0  0
   -2.9531   -0.7732   -3.4629 N   0  0  0  0  0
   -4.4648   -1.9067   -2.2705 N   0  0  0  0  0
    2.4307   -1.8691   -2.7295 N   0  0  0  0  0
   -0.9487   -0.9194   -0.3086 N   0  0  0  0  0
   -0.6775   -0.2526    2.2754 C   0  0  0  0  0
    0.0154   -1.3408    4.7109 C   0  0  0  0  0
   -4.2129   -1.3159   -3.4219 C   0  0  0  0  0
   -2.3682   -1.0430   -2.2607 C   0  0  0  0  0
   -3.3174   -1.7388   -1.5488 C   0  0  0  0  0
    1.4165   -1.1777   -2.1553 C   0  0  0  0  0
    2.1123   -2.7998   -3.6553 C   0  0  0  0  0
    0.0830   -1.4297   -2.4824 C   0  0  0  0  0
   -1.6724   -0.8379    3.0713 C   0  0  0  0  0
    0.6780   -0.1907    2.6514 C   0  0  0  0  0
   -1.3291   -1.3804    4.3086 C   0  0  0  0  0
    0.9883   -0.7527    3.8984 C   0  0  0  0  0
    0.8188   -3.0977   -4.0449 C   0  0  0  0  0
   -0.2263   -2.3955   -3.4482 C   0  0  0  0  0
   -0.9473   -2.6953    7.0527 C   0  0  0  0  0
   -1.0039   -0.6753   -1.8066 C   0  0  2  0  0
   -1.5884   -2.2051    0.1568 C   0  0  0  0  0
   -3.0957   -2.2002   -0.1617 C   0  0  0  0  0
   -2.6388   -0.2883   -4.2913 H   0  0  0  0  0
   -4.8487   -1.2304   -4.2531 H   0  0  0  0  0
    1.6249   -0.4321   -1.4460 H   0  0  0  0  0
    2.8708   -3.3503   -4.1288 H   0  0  0  0  0
   -2.6663   -0.8650    2.7338 H   0  0  0  0  0
    1.3805    0.2558    2.0113 H   0  0  0  0  0
   -2.0522   -1.8124    4.9355 H   0  0  0  0  0
    1.9887   -0.7217    4.2158 H   0  0  0  0  0
    0.6462   -3.8355   -4.7717 H   0  0  0  0  0
   -1.2275   -2.5766   -3.7077 H   0  0  0  0  0
   -1.4680   -1.9210    7.5342 H   0  0  0  0  0
   -0.6598   -3.4163    7.7598 H   0  0  0  0  0
   -1.5686   -3.1398    6.3323 H   0  0  0  0  0
   -0.8093    0.3375   -2.0036 H   0  0  0  0  0
   -1.1379   -3.0174   -0.3328 H   0  0  0  0  0
   -1.4581   -2.3055    1.1938 H   0  0  0  0  0
   -3.5877   -1.5549    0.5047 H   0  0  0  0  0
   -3.4754   -3.1729   -0.0515 H   0  0  0  0  0
  1  3  2  0  0  0
  1  4  2  0  0  0
  1 10  1  0  0  0
  1 11  1  0  0  0
  2  5  2  0  0  0
  2  6  2  0  0  0
  2 12  1  0  0  0
  2 25  1  0  0  0
  7 13  1  0  0  0
  7 14  1  0  0  0
  7 29  1  0  0  0
  8 13  2  0  0  0
  8 15  1  0  0  0
  9 16  2  0  0  0
  9 17  1  0  0  0
 10 26  1  0  0  0
 10 27  1  0  0  0
 11 19  2  0  0  0
 11 20  1  0  0  0
 12 21  2  0  0  0
 12 22  1  0  0  0
 13 30  1  0  0  0
 14 15  2  0  0  0
 14 26  1  0  0  0
 15 28  1  0  0  0
 16 18  1  0  0  0
 16 31  1  0  0  0
 17 23  2  0  0  0
 17 32  1  0  0  0
 18 24  2  0  0  0
 18 26  1  0  0  0
 19 21  1  0  0  0
 19 33  1  0  0  0
 20 22  2  0  0  0
 20 34  1  0  0  0
 21 35  1  0  0  0
 22 36  1  0  0  0
 23 24  1  0  0  0
 23 37  1  0  0  0
 24 38  1  0  0  0
 25 39  1  0  0  0
 25 40  1  0  0  0
 25 41  1  0  0  0
 26 42  1  0  0  0
 27 28  1  0  0  0
 27 43  1  0  0  0
 27 44  1  0  0  0
 28 45  1  0  0  0
 28 46  1  0  0  0
M  END
> <QPhAR in domain>
True

> <s_m_source_file>
iis-007-000-000--007-499-999_filtered_optim.maegz

> <r_epik_Charging_Adjusted_Penalty>
0.444254

> <PRICERANGE_1MG>
< 50

> <Name>
MolPort-045-929-441

> <i_m_Source_File_Index>
17758

> <i_lp_mmshare_version>
36015

> <PUBCHEM_EXT_DATASOURCE_URL>
https://www.molport.com

> <s_lp_Force_Field>
OPLS3

> <r_epik_Ionization_Penalty>
0.0840186

> <r_epik_State_Penalty>
0.362645

> <IS_SC>
Yes

> <r_epik_Ionization_Penalty_Neutral>
0.00240958

> <s_m_Source_Path>
/home/mrgulotta/data_server/CADD/LIBRERIE/OTTIMIZZATE/MOLPORT/ALL_STOCK_COMPOUNDS_FILTERED_NEW

> <i_m_source_file_index>
17758

> <PUBCHEM_EXT_SUBSTANCE_URL>
https://www.molport.com/shop/molecule-link/MolPort-045-929-441

> <VERIFIED_AMOUNT_MG>
5

> <r_epik_Ionization_Penalty_Charging>
0.0816091

> <r_lp_Energy>
23.6709

> <QC_METHOD>
LCMS

> <QPhAR prediction>
6.989007341520741

> <i_epik_Tot_abs_Q>
0

> <i_epik_Tot_Q>
0

> <cdk:Title>
null

> <b_lp_Chiralities_Consistent>
1

> <s_m_entry_name>
iis-007-000-000--007-499-999_filtered.17758

> <i_f3d_flags>
0

> <PRICERANGE_5MG>
50 - 100

> <COMPOUND_STATE>
FILM

> <s_m_entry_id>
155437

> <Molecule_Name>
MolPort-045-929-441

> <Score>
0.9291165196291047

> <BEST_LEAD_TIME>
12

> <s_lp_Variant>
MolPort-045-929-441-1

> <s_m_Source_File>
iis-007-000-000--007-499-999_filtered.sdf

> <r_lp_tautomer_probability>
0.5

> <UNVERIFIED_AMOUNT_MG>
5.0

$$$$
MolPort-007-972-722
XX    ILIB07022204093D

 52 54  0  0  1  0              1 V2000
   -0.9507   -0.0660   -2.8193 S   0  0  0  0  0
   -1.0347   -0.3593    0.2634 O   0  0  0  0  0
   -0.9409   -1.9263    6.3613 O   0  0  0  0  0
    1.3599    2.4443    8.6836 O   0  0  0  0  0
   -3.4434   -0.8997   -2.4541 N   0  0  0  0  0
   -3.2451   -1.1055    0.2900 N   0  0  0  0  0
   -1.6016    0.2775    6.5273 N   0  0  0  0  0
   -2.2949   -0.5945   -1.8057 C   0  0  0  0  0
   -0.1371   -1.5933   -3.1660 C   0  0  0  0  0
   -2.1826   -0.6743   -0.4270 C   0  0  0  0  0
   -1.0786   -0.4893    1.6323 C   0  0  0  0  0
   -4.5117   -1.3096   -1.7393 C   0  0  0  0  0
   -4.3867   -1.4102   -0.3689 C   0  0  0  0  0
   -1.1851   -0.7078    4.3750 C   0  0  0  0  0
   -0.5298   -2.3154   -4.3008 C   0  0  0  0  0
    0.8796   -2.0186   -2.2891 C   0  0  0  0  0
   -1.4805    0.6162    2.3945 C   0  0  0  0  0
   -0.7246   -1.7305    2.1943 C   0  0  0  0  0
   -1.5254    0.5107    3.7842 C   0  0  0  0  0
   -0.7886   -1.8032    3.5947 C   0  0  0  0  0
    0.0932   -3.5283   -4.5898 C   0  0  0  0  0
    1.4897   -3.2393   -2.6152 C   0  0  0  0  0
    1.1099   -3.9795   -3.7451 C   0  0  0  0  0
   -1.2368   -0.8611    5.8242 C   0  0  0  0  0
    0.1119    2.1084    8.0977 C   0  0  0  0  0
    1.8271    3.7266    8.2969 C   0  0  0  0  0
   -1.6646    0.3066    7.9609 C   0  0  0  0  0
   -0.3210    0.7239    8.5586 C   0  0  0  0  0
    3.1602    3.9639    8.9844 C   0  0  0  0  0
   -1.8345    1.1252    6.0300 H   0  0  0  0  0
   -5.4115   -1.5435   -2.2273 H   0  0  0  0  0
   -5.2287   -1.7401    0.1646 H   0  0  0  0  0
   -1.2872   -1.9418   -4.9247 H   0  0  0  0  0
    1.1346   -1.4315   -1.4568 H   0  0  0  0  0
   -1.7446    1.5141    1.9184 H   0  0  0  0  0
   -0.4369   -2.5257    1.5719 H   0  0  0  0  0
   -1.8079    1.3245    4.3846 H   0  0  0  0  0
   -0.5292   -2.7100    4.0561 H   0  0  0  0  0
   -0.2041   -4.0843   -5.4294 H   0  0  0  0  0
    2.2540   -3.6234   -2.0063 H   0  0  0  0  0
    1.6014   -4.8840   -3.9518 H   0  0  0  0  0
    0.2040    2.1121    7.0518 H   0  0  0  0  0
   -0.6116    2.8119    8.3878 H   0  0  0  0  0
    1.9454    3.7562    7.2540 H   0  0  0  0  0
    1.1314    4.4560    8.5910 H   0  0  0  0  0
   -1.9111   -0.6488    8.3199 H   0  0  0  0  0
   -2.3972    0.9945    8.2652 H   0  0  0  0  0
   -0.4143    0.7164    9.6044 H   0  0  0  0  0
    0.3982    0.0169    8.2663 H   0  0  0  0  0
    3.2768    4.9894    9.1775 H   0  0  0  0  0
    3.9387    3.6343    8.3617 H   0  0  0  0  0
    3.1869    3.4321    9.8894 H   0  0  0  0  0
  1  8  1  0  0  0
  1  9  1  0  0  0
  2 10  1  0  0  0
  2 11  1  0  0  0
  3 24  2  0  0  0
  4 25  1  0  0  0
  4 26  1  0  0  0
  5  8  2  0  0  0
  5 12  1  0  0  0
  6 10  2  0  0  0
  6 13  1  0  0  0
  7 24  1  0  0  0
  7 27  1  0  0  0
  7 30  1  0  0  0
  8 10  1  0  0  0
  9 15  2  0  0  0
  9 16  1  0  0  0
 11 17  2  0  0  0
 11 18  1  0  0  0
 12 13  2  0  0  0
 12 31  1  0  0  0
 13 32  1  0  0  0
 14 19  2  0  0  0
 14 20  1  0  0  0
 14 24  1  0  0  0
 15 21  1  0  0  0
 15 33  1  0  0  0
 16 22  2  0  0  0
 16 34  1  0  0  0
 17 19  1  0  0  0
 17 35  1  0  0  0
 18 20  2  0  0  0
 18 36  1  0  0  0
 19 37  1  0  0  0
 20 38  1  0  0  0
 21 23  2  0  0  0
 21 39  1  0  0  0
 22 23  1  0  0  0
 22 40  1  0  0  0
 23 41  1  0  0  0
 25 28  1  0  0  0
 25 42  1  0  0  0
 25 43  1  0  0  0
 26 29  1  0  0  0
 26 44  1  0  0  0
 26 45  1  0  0  0
 27 28  1  0  0  0
 27 46  1  0  0  0
 27 47  1  0  0  0
 28 48  1  0  0  0
 28 49  1  0  0  0
 29 50  1  0  0  0
 29 51  1  0  0  0
 29 52  1  0  0  0
M  END
> <QPhAR in domain>
True

> <s_m_source_file>
iis-003-000-000--003-499-999_filtered_optim.maegz

> <r_epik_Charging_Adjusted_Penalty>
0.0

> <PRICERANGE_1MG>
50 - 100

> <Name>
MolPort-007-972-722

> <i_m_Source_File_Index>
36957

> <i_lp_mmshare_version>
36015

> <PUBCHEM_EXT_DATASOURCE_URL>
https://www.molport.com

> <s_lp_Force_Field>
OPLS3

> <r_epik_Ionization_Penalty>
3.87578E-7

> <r_epik_State_Penalty>
0.0

> <IS_SC>
Yes

> <r_epik_Ionization_Penalty_Neutral>
3.87578E-7

> <s_m_Source_Path>
/home/mrgulotta/data_server/CADD/LIBRERIE/OTTIMIZZATE/MOLPORT/ALL_STOCK_COMPOUNDS_FILTERED_NEW

> <i_m_source_file_index>
36957

> <PUBCHEM_EXT_SUBSTANCE_URL>
https://www.molport.com/shop/molecule-link/MolPort-007-972-722

> <VERIFIED_AMOUNT_MG>
2

> <r_epik_Ionization_Penalty_Charging>
0.0

> <r_lp_Energy>
45.7944

> <QC_METHOD>
NMR

> <QPhAR prediction>
6.973087264076223

> <i_epik_Tot_abs_Q>
0

> <i_epik_Tot_Q>
0

> <cdk:Title>
null

> <b_lp_Chiralities_Consistent>
1

> <s_m_entry_name>
iis-003-000-000--003-499-999_filtered.36957

> <i_f3d_flags>
0

> <COMPOUND_STATE>
SOLID

> <s_m_entry_id>
195386

> <Score>
0.9244161639006668

> <Molecule_Name>
MolPort-007-972-722

> <BEST_LEAD_TIME>
10

> <s_lp_Variant>
MolPort-007-972-722-1

> <s_m_Source_File>
iis-003-000-000--003-499-999_filtered.sdf

> <r_lp_tautomer_probability>
1.0

> <UNVERIFIED_AMOUNT_MG>
2

$$$$
MolPort-028-730-131
XX    ILIB07022204093D

 50 54  0  0  1  0              1 V2000
   -1.3276   -4.4238   -2.5068 O   0  0  0  0  0
    4.4551   -2.0586   -3.2100 N   0  0  0  0  0
    4.5859   -1.2900   -5.3086 N   0  0  0  0  0
   -3.0098   -0.4463    0.0322 N   0  0  0  0  0
    0.4911    0.3169    2.8896 N   0  0  0  0  0
   -0.2590   -2.6826   -3.4756 N   0  0  0  0  0
    3.7832   -1.7417   -4.3691 C   0  0  0  0  0
   -3.5898   -0.7559   -1.1426 C   0  0  0  0  0
   -1.8418   -1.0454    0.3545 C   0  0  0  0  0
    5.7812   -1.7832   -3.4521 C   0  0  0  0  0
    5.8301   -1.3125   -4.7422 C   0  0  0  0  0
   -0.0381   -0.0765    1.7056 C   0  0  0  0  0
   -0.2322    0.0901    4.0078 C   0  0  0  0  0
   -3.0127   -1.6768   -2.0420 C   0  0  0  0  0
   -1.2983   -0.6716    1.6299 C   0  0  0  0  0
   -1.7827   -2.2568   -1.6733 C   0  0  0  0  0
   -4.7988   -0.1518   -1.4878 C   0  0  0  0  0
   -1.1919   -1.9556   -0.4507 C   0  0  0  0  0
   -1.4795   -0.5076    4.0176 C   0  0  0  0  0
   -3.6719   -1.9673   -3.2529 C   0  0  0  0  0
   -2.0303   -0.9031    2.8008 C   0  0  0  0  0
   -5.4473   -0.4338   -2.6943 C   0  0  0  0  0
   -4.8789   -1.3516   -3.5723 C   0  0  0  0  0
   -1.1279   -3.2100   -2.5586 C   0  0  0  0  0
    0.0598   -1.2583   -3.6328 C   0  0  0  0  0
    0.4159   -3.5645   -4.4297 C   0  0  0  0  0
    2.3311   -1.9160   -4.5273 C   0  0  0  0  0
    1.5669   -1.0308   -3.5303 C   0  0  0  0  0
    1.9312   -3.3896   -4.3496 C   0  0  0  0  0
    3.9471   -2.4149   -2.4131 H   0  0  0  0  0
    6.4975   -1.9508   -2.7029 H   0  0  0  0  0
    6.6641   -0.9928   -5.2942 H   0  0  0  0  0
    0.5024    0.0640    0.8164 H   0  0  0  0  0
    0.1473    0.3732    4.9450 H   0  0  0  0  0
   -5.2474    0.5364   -0.8338 H   0  0  0  0  0
   -0.2903   -2.3890   -0.1316 H   0  0  0  0  0
   -1.9851   -0.6524    4.9264 H   0  0  0  0  0
   -3.2532   -2.6553   -3.9266 H   0  0  0  0  0
   -2.9717   -1.3652    2.7487 H   0  0  0  0  0
   -6.3520    0.0449   -2.9285 H   0  0  0  0  0
   -5.3614   -1.5796   -4.4766 H   0  0  0  0  0
   -0.2712   -0.9272   -4.5726 H   0  0  0  0  0
   -0.4197   -0.7070   -2.8787 H   0  0  0  0  0
    0.0991   -3.3340   -5.4039 H   0  0  0  0  0
    0.1780   -4.5637   -4.2115 H   0  0  0  0  0
    2.0507   -1.6485   -5.5032 H   0  0  0  0  0
    1.7841   -0.0252   -3.7401 H   0  0  0  0  0
    1.8907   -1.2635   -2.5590 H   0  0  0  0  0
    2.2724   -3.7185   -3.4126 H   0  0  0  0  0
    2.3892   -3.9545   -5.1069 H   0  0  0  0  0
  1 24  2  0  0  0
  2  7  1  0  0  0
  2 10  1  0  0  0
  2 30  1  0  0  0
  3  7  2  0  0  0
  3 11  1  0  0  0
  4  8  2  0  0  0
  4  9  1  0  0  0
  5 12  2  0  0  0
  5 13  1  0  0  0
  6 24  1  0  0  0
  6 25  1  0  0  0
  6 26  1  0  0  0
  7 27  1  0  0  0
  8 14  1  0  0  0
  8 17  1  0  0  0
  9 15  1  0  0  0
  9 18  2  0  0  0
 10 11  2  0  0  0
 10 31  1  0  0  0
 11 32  1  0  0  0
 12 15  1  0  0  0
 12 33  1  0  0  0
 13 19  2  0  0  0
 13 34  1  0  0  0
 14 16  2  0  0  0
 14 20  1  0  0  0
 15 21  2  0  0  0
 16 18  1  0  0  0
 16 24  1  0  0  0
 17 22  2  0  0  0
 17 35  1  0  0  0
 18 36  1  0  0  0
 19 21  1  0  0  0
 19 37  1  0  0  0
 20 23  2  0  0  0
 20 38  1  0  0  0
 21 39  1  0  0  0
 22 23  1  0  0  0
 22 40  1  0  0  0
 23 41  1  0  0  0
 25 28  1  0  0  0
 25 42  1  0  0  0
 25 43  1  0  0  0
 26 29  1  0  0  0
 26 44  1  0  0  0
 26 45  1  0  0  0
 27 28  1  0  0  0
 27 29  1  0  0  0
 27 46  1  0  0  0
 28 47  1  0  0  0
 28 48  1  0  0  0
 29 49  1  0  0  0
 29 50  1  0  0  0
M  END
> <QPhAR in domain>
True

> <s_m_source_file>
iis-005-500-000--005-999-999_filtered_optim.maegz

> <r_epik_Charging_Adjusted_Penalty>
0.622082

> <PRICERANGE_1MG>
< 50

> <Name>
MolPort-028-730-131

> <i_m_Source_File_Index>
30873

> <i_lp_mmshare_version>
36015

> <PUBCHEM_EXT_DATASOURCE_URL>
https://www.molport.com

> <s_lp_Force_Field>
OPLS3

> <r_epik_Ionization_Penalty>
0.314039

> <r_epik_State_Penalty>
0.308132

> <IS_SC>
Yes

> <r_epik_Ionization_Penalty_Neutral>
8.81668E-5

> <s_m_Source_Path>
/home/mrgulotta/data_server/CADD/LIBRERIE/OTTIMIZZATE/MOLPORT/ALL_STOCK_COMPOUNDS_FILTERED_NEW

> <i_m_source_file_index>
30873

> <PUBCHEM_EXT_SUBSTANCE_URL>
https://www.molport.com/shop/molecule-link/MolPort-028-730-131

> <VERIFIED_AMOUNT_MG>
1

> <r_epik_Ionization_Penalty_Charging>
0.313951

> <r_lp_Energy>
58.6175

> <QC_METHOD>
LCMS

> <QPhAR prediction>
6.92160690121827

> <i_epik_Tot_abs_Q>
0

> <i_epik_Tot_Q>
0

> <cdk:Title>
null

> <b_lp_Chiralities_Consistent>
1

> <s_m_entry_name>
iis-005-500-000--005-999-999_filtered.30873

> <i_f3d_flags>
0

> <COMPOUND_STATE>
FILM

> <s_m_entry_id>
176297

> <Score>
0.9469876328354138

> <Molecule_Name>
MolPort-028-730-131

> <BEST_LEAD_TIME>
12

> <s_lp_Variant>
MolPort-028-730-131-1

> <s_m_Source_File>
iis-005-500-000--005-999-999_filtered.sdf

> <r_lp_tautomer_probability>
0.5

> <UNVERIFIED_AMOUNT_MG>
1

$$$$
MolPort-007-729-915
XX    ILIB07022204093D

 59 62  0  0  1  0              1 V2000
    0.3450   -0.3848   -6.8594 O   0  0  0  0  0
   -0.2424   -1.7129   -9.5234 O   0  0  0  0  0
   -1.9214   -0.2173   -0.4342 N   0  0  0  0  0
    1.7573   -2.1162   -7.4922 N   0  0  0  0  0
   -3.0420   -0.8621   -0.9307 C   0  0  0  0  0
   -0.7930   -0.6870   -1.0718 C   0  0  0  0  0
   -2.6094   -1.7188   -1.9458 C   0  0  0  0  0
   -1.1948   -1.5537   -2.0732 C   0  0  0  0  0
   -1.7461    0.0881    1.9653 C   0  0  0  0  0
   -1.3647   -1.1182    4.4102 C   0  0  0  0  0
   -4.3984   -0.7693   -0.5789 C   0  0  0  0  0
   -3.5596   -2.5273   -2.6084 C   0  0  0  0  0
   -0.4427   -0.0798    2.4521 C   0  0  0  0  0
   -2.8945   -0.3257    2.6660 C   0  0  0  0  0
   -0.2472   -0.6990    3.6865 C   0  0  0  0  0
   -2.6611   -0.9380    3.9072 C   0  0  0  0  0
   -5.3203   -1.5732   -1.2568 C   0  0  0  0  0
   -4.9160   -2.4590   -2.2549 C   0  0  0  0  0
    0.9099   -1.4482   -6.6191 C   0  0  0  0  0
    1.0991   -2.1270   -9.8398 C   0  0  1  0  0
   -1.1299   -2.8154   -9.7578 C   0  0  0  0  0
   -1.9272    0.7439    0.6445 C   0  0  0  0  0
    2.0703   -1.6211   -8.8008 C   0  0  0  0  0
   -0.3038   -2.2422   -3.0156 C   0  0  0  0  0
   -1.1973   -1.7666    5.7383 C   0  0  0  0  0
    0.7585   -2.1934   -5.3047 C   0  0  0  0  0
    1.0562   -3.6455   -9.9062 C   0  0  0  0  0
   -0.3254   -3.8877  -10.4570 C   0  0  0  0  0
   -0.1686   -1.4717   -4.3301 C   0  0  0  0  0
    2.1822   -2.9894   -7.2146 H   0  0  0  0  0
    0.1575   -0.3680   -0.7598 H   0  0  0  0  0
   -4.7004   -0.1071    0.1780 H   0  0  0  0  0
   -3.2521   -3.1828   -3.3688 H   0  0  0  0  0
    0.3759    0.2593    1.8887 H   0  0  0  0  0
   -3.8468   -0.1684    2.2527 H   0  0  0  0  0
    0.7167   -0.8521    4.0737 H   0  0  0  0  0
   -3.4899   -1.2648    4.4628 H   0  0  0  0  0
   -6.3412   -1.5173   -1.0178 H   0  0  0  0  0
   -5.6167   -3.0718   -2.7408 H   0  0  0  0  0
    1.3725   -1.7413  -10.7773 H   0  0  0  0  0
   -1.5004   -3.1676   -8.8406 H   0  0  0  0  0
   -1.9297   -2.4990  -10.3600 H   0  0  0  0  0
   -2.8440    1.2556    0.6524 H   0  0  0  0  0
   -1.1446    1.4301    0.5060 H   0  0  0  0  0
    2.0310   -0.5718   -8.7967 H   0  0  0  0  0
    3.0352   -1.9342   -9.0719 H   0  0  0  0  0
   -0.6891   -3.1954   -3.2289 H   0  0  0  0  0
    0.6506   -2.3380   -2.5885 H   0  0  0  0  0
   -1.0002   -1.0333    6.4635 H   0  0  0  0  0
   -2.0776   -2.2804    5.9904 H   0  0  0  0  0
   -0.3959   -2.4439    5.6986 H   0  0  0  0  0
    0.3584   -3.1469   -5.4870 H   0  0  0  0  0
    1.6985   -2.2900   -4.8468 H   0  0  0  0  0
    1.1934   -4.0419   -8.9437 H   0  0  0  0  0
    1.8202   -3.9899  -10.5388 H   0  0  0  0  0
   -0.3857   -3.7489  -11.4960 H   0  0  0  0  0
   -0.7096   -4.8324  -10.2072 H   0  0  0  0  0
   -1.1134   -1.3751   -4.7780 H   0  0  0  0  0
    0.2267   -0.5181   -4.1378 H   0  0  0  0  0
  1 19  2  0  0  0
  2 20  1  0  0  0
  2 21  1  0  0  0
  3  5  1  0  0  0
  3  6  1  0  0  0
  3 22  1  0  0  0
  4 19  1  0  0  0
  4 23  1  0  0  0
  4 30  1  0  0  0
  5  7  2  0  0  0
  5 11  1  0  0  0
  6  8  2  0  0  0
  6 31  1  0  0  0
  7  8  1  0  0  0
  7 12  1  0  0  0
  8 24  1  0  0  0
  9 13  2  0  0  0
  9 14  1  0  0  0
  9 22  1  0  0  0
 10 15  2  0  0  0
 10 16  1  0  0  0
 10 25  1  0  0  0
 11 17  2  0  0  0
 11 32  1  0  0  0
 12 18  2  0  0  0
 12 33  1  0  0  0
 13 15  1  0  0  0
 13 34  1  0  0  0
 14 16  2  0  0  0
 14 35  1  0  0  0
 15 36  1  0  0  0
 16 37  1  0  0  0
 17 18  1  0  0  0
 17 38  1  0  0  0
 18 39  1  0  0  0
 19 26  1  0  0  0
 20 23  1  0  0  0
 20 27  1  0  0  0
 20 40  1  0  0  0
 21 28  1  0  0  0
 21 41  1  0  0  0
 21 42  1  0  0  0
 22 43  1  0  0  0
 22 44  1  0  0  0
 23 45  1  0  0  0
 23 46  1  0  0  0
 24 29  1  0  0  0
 24 47  1  0  0  0
 24 48  1  0  0  0
 25 49  1  0  0  0
 25 50  1  0  0  0
 25 51  1  0  0  0
 26 29  1  0  0  0
 26 52  1  0  0  0
 26 53  1  0  0  0
 27 28  1  0  0  0
 27 54  1  0  0  0
 27 55  1  0  0  0
 28 56  1  0  0  0
 28 57  1  0  0  0
 29 58  1  0  0  0
 29 59  1  0  0  0
M  END
> <QPhAR in domain>
True

> <s_m_source_file>
iis-003-000-000--003-499-999_filtered_optim.maegz

> <PRICERANGE_50MG>
100 - 250

> <r_epik_Charging_Adjusted_Penalty>
0.0

> <PRICERANGE_1MG>
50 - 100

> <Name>
MolPort-007-729-915

> <i_m_Source_File_Index>
22089

> <i_lp_mmshare_version>
36015

> <PUBCHEM_EXT_DATASOURCE_URL>
https://www.molport.com

> <s_lp_Force_Field>
OPLS3

> <r_epik_Ionization_Penalty>
2.04767E-8

> <r_epik_State_Penalty>
0.0

> <IS_SC>
Yes

> <r_epik_Ionization_Penalty_Neutral>
2.04767E-8

> <s_m_Source_Path>
/home/mrgulotta/data_server/CADD/LIBRERIE/OTTIMIZZATE/MOLPORT/ALL_STOCK_COMPOUNDS_FILTERED_NEW

> <i_m_source_file_index>
22089

> <PUBCHEM_EXT_SUBSTANCE_URL>
https://www.molport.com/shop/molecule-link/MolPort-007-729-915

> <VERIFIED_AMOUNT_MG>
200

> <r_epik_Ionization_Penalty_Charging>
0.0

> <r_lp_Energy>
25.0732

> <QC_METHOD>
NMR

> <QPhAR prediction>
6.914582504680577

> <i_epik_Tot_abs_Q>
0

> <i_epik_Tot_Q>
0

> <cdk:Title>
null

> <b_lp_Chiralities_Consistent>
1

> <s_m_entry_name>
iis-003-000-000--003-499-999_filtered.22089

> <i_f3d_flags>
0

> <PRICERANGE_5MG>
50 - 100

> <COMPOUND_STATE>
SOLID

> <s_m_entry_id>
180518

> <Molecule_Name>
MolPort-007-729-915

> <Score>
0.9379014031211946

> <BEST_LEAD_TIME>
10

> <s_lp_Variant>
MolPort-007-729-915-1

> <s_m_Source_File>
iis-003-000-000--003-499-999_filtered.sdf

> <r_lp_tautomer_probability>
1.0

> <UNVERIFIED_AMOUNT_MG>
200

$$$$
MolPort-010-837-616
XX    ILIB07022204093D

 53 56  0  0  1  0              1 V2000
   -3.1279   -3.4023   -5.1895 S   0  0  0  0  0
   -1.9043   -0.2924   10.3789 F   0  0  0  0  0
   -1.2026   -2.3105   10.0117 F   0  0  0  0  0
   -3.3359   -1.8936   10.0469 F   0  0  0  0  0
   -1.9995    0.5779    2.1514 O   0  0  0  0  0
   -2.2314   -0.2505   -0.3325 O   0  0  0  0  0
   -3.5898   -2.5225   -6.2480 O   0  0  0  0  0
   -3.9727   -4.5000   -4.7617 O   0  0  0  0  0
   -1.9087    0.7705    3.5283 N   0  0  0  0  0
   -2.3408   -1.4258    3.0830 N   0  0  0  0  0
   -1.5425   -3.9980   -5.5859 N   0  0  0  0  0
   -2.8203   -2.3965   -3.7676 C   0  0  0  0  0
   -2.2578   -0.7483    1.9634 C   0  0  0  0  0
   -2.4023   -0.8572   -1.5347 C   0  0  0  0  0
   -2.3936   -1.1987    0.6326 C   0  0  0  0  0
   -2.1279   -0.4535    4.0332 C   0  0  0  0  0
   -2.6738   -2.2070   -1.3555 C   0  0  0  0  0
   -2.1289   -0.7009    5.4434 C   0  0  0  0  0
   -2.6504   -2.4385    0.0613 C   0  0  0  0  0
   -2.1270   -1.1323    8.1641 C   0  0  0  0  0
   -2.8887   -2.9951   -2.5029 C   0  0  0  0  0
   -2.5244   -1.0342   -3.8984 C   0  0  0  0  0
   -2.3262   -0.2249   -2.7744 C   0  0  0  0  0
   -1.8994    0.3766    6.3105 C   0  0  0  0  0
   -2.3682   -2.0146    5.8887 C   0  0  0  0  0
   -1.8882    0.1584    7.6875 C   0  0  0  0  0
   -2.3574   -2.1963    7.2793 C   0  0  0  0  0
   -2.1396   -1.4009    9.6250 C   0  0  0  0  0
   -0.5762   -3.0254   -6.1211 C   0  0  0  0  0
   -0.9546   -4.9453   -4.6250 C   0  0  0  0  0
   -2.8730   -3.7031    0.7739 C   0  0  0  0  0
    0.2308   -2.3633   -5.0156 C   0  0  0  0  0
   -0.0171   -5.9316   -5.3066 C   0  0  0  0  0
   -3.0983   -4.0205   -2.4180 H   0  0  0  0  0
   -2.4477   -0.6029   -4.8526 H   0  0  0  0  0
   -2.1291    0.8051   -2.8272 H   0  0  0  0  0
   -1.7378    1.3384    5.9214 H   0  0  0  0  0
   -2.5395   -2.7819    5.1927 H   0  0  0  0  0
   -1.7049    0.9417    8.3623 H   0  0  0  0  0
   -2.5283   -3.1625    7.6532 H   0  0  0  0  0
   -1.0892   -2.2761   -6.6483 H   0  0  0  0  0
    0.0908   -3.5144   -6.7680 H   0  0  0  0  0
   -0.4075   -4.4160   -3.9018 H   0  0  0  0  0
   -1.7208   -5.4887   -4.1558 H   0  0  0  0  0
   -2.2099   -3.7690    1.5853 H   0  0  0  0  0
   -2.7067   -4.5074    0.1198 H   0  0  0  0  0
   -3.8616   -3.7370    1.1261 H   0  0  0  0  0
    0.1269   -2.9148   -4.1281 H   0  0  0  0  0
   -0.1205   -1.3856   -4.8633 H   0  0  0  0  0
    1.2433   -2.3323   -5.2919 H   0  0  0  0  0
    0.7915   -5.4114   -5.7285 H   0  0  0  0  0
    0.3405   -6.6205   -4.5994 H   0  0  0  0  0
   -0.5366   -6.4434   -6.0621 H   0  0  0  0  0
  1  7  2  0  0  0
  1  8  2  0  0  0
  1 11  1  0  0  0
  1 12  1  0  0  0
  2 28  1  0  0  0
  3 28  1  0  0  0
  4 28  1  0  0  0
  5  9  1  0  0  0
  5 13  1  0  0  0
  6 14  1  0  0  0
  6 15  1  0  0  0
  9 16  2  0  0  0
 10 13  2  0  0  0
 10 16  1  0  0  0
 11 29  1  0  0  0
 11 30  1  0  0  0
 12 21  2  0  0  0
 12 22  1  0  0  0
 13 15  1  0  0  0
 14 17  2  0  0  0
 14 23  1  0  0  0
 15 19  2  0  0  0
 16 18  1  0  0  0
 17 19  1  0  0  0
 17 21  1  0  0  0
 18 24  2  0  0  0
 18 25  1  0  0  0
 19 31  1  0  0  0
 20 26  2  0  0  0
 20 27  1  0  0  0
 20 28  1  0  0  0
 21 34  1  0  0  0
 22 23  2  0  0  0
 22 35  1  0  0  0
 23 36  1  0  0  0
 24 26  1  0  0  0
 24 37  1  0  0  0
 25 27  2  0  0  0
 25 38  1  0  0  0
 26 39  1  0  0  0
 27 40  1  0  0  0
 29 32  1  0  0  0
 29 41  1  0  0  0
 29 42  1  0  0  0
 30 33  1  0  0  0
 30 43  1  0  0  0
 30 44  1  0  0  0
 31 45  1  0  0  0
 31 46  1  0  0  0
 31 47  1  0  0  0
 32 48  1  0  0  0
 32 49  1  0  0  0
 32 50  1  0  0  0
 33 51  1  0  0  0
 33 52  1  0  0  0
 33 53  1  0  0  0
M  END
> <QPhAR in domain>
True

> <s_m_source_file>
iis-004-000-000--004-499-999_filtered_optim.maegz

> <PRICERANGE_50MG>
100 - 250

> <r_epik_Charging_Adjusted_Penalty>
0.0

> <PRICERANGE_1MG>
< 50

> <Name>
MolPort-010-837-616

> <i_m_Source_File_Index>
57840

> <i_lp_mmshare_version>
36015

> <PUBCHEM_EXT_DATASOURCE_URL>
https://www.molport.com

> <s_lp_Force_Field>
OPLS3

> <r_epik_Ionization_Penalty>
1.23004E-10

> <r_epik_State_Penalty>
0.0

> <IS_SC>
Yes

> <r_epik_Ionization_Penalty_Neutral>
1.23004E-10

> <s_m_Source_Path>
/home/mrgulotta/data_server/CADD/LIBRERIE/OTTIMIZZATE/MOLPORT/ALL_STOCK_COMPOUNDS_FILTERED_NEW

> <i_m_source_file_index>
57840

> <PUBCHEM_EXT_SUBSTANCE_URL>
https://www.molport.com/shop/molecule-link/MolPort-010-837-616

> <VERIFIED_AMOUNT_MG>
75

> <r_epik_Ionization_Penalty_Charging>
0.0

> <r_lp_Energy>
32.754

> <QC_METHOD>
NMR

> <QPhAR prediction>
6.9096769511251

> <i_epik_Tot_abs_Q>
0

> <i_epik_Tot_Q>
0

> <cdk:Title>
null

> <b_lp_Chiralities_Consistent>
1

> <s_m_entry_name>
iis-004-000-000--004-499-999_filtered.57840

> <i_f3d_flags>
0

> <PRICERANGE_5MG>
< 50

> <COMPOUND_STATE>
SOLID; N/A

> <s_m_entry_id>
128618

> <Molecule_Name>
MolPort-010-837-616

> <Score>
0.9465056117259915

> <BEST_LEAD_TIME>
10

> <s_lp_Variant>
MolPort-010-837-616-1

> <s_m_Source_File>
iis-004-000-000--004-499-999_filtered.sdf

> <r_lp_tautomer_probability>
1.0

> <UNVERIFIED_AMOUNT_MG>
75

$$$$
MolPort-020-206-301
XX    ILIB07022204093D

 42 45  0  0  1  0              1 V2000
   -0.8694   -0.7390   -3.9316 O   0  0  0  0  0
   -1.8813    0.4668    1.8828 N   0  0  0  0  0
   -2.3535    0.3147    3.1641 N   0  0  0  0  0
   -2.2949   -1.1553   -0.8340 N   0  0  0  0  0
   -1.9639   -1.6895    2.3330 N   0  0  0  0  0
   -3.4756   -1.4824   -2.7070 N   0  0  0  0  0
    3.4619   -2.5146   -5.4629 N   0  0  0  0  0
   -1.0728   -1.6089   -2.9092 C   0  0  0  0  0
    0.3229   -1.0742   -4.5020 C   0  0  0  0  0
   -2.2705   -1.4292   -2.1836 C   0  0  0  0  0
   -1.6538   -0.7334    1.3994 C   0  0  0  0  0
   -2.3975   -0.9734    3.4199 C   0  0  0  0  0
   -3.6230   -1.0269   -0.4972 C   0  0  0  0  0
   -4.3203   -1.2344   -1.6631 C   0  0  0  0  0
    0.7283   -0.2688   -5.6191 C   0  0  0  0  0
    1.9517   -0.5703   -6.2480 C   0  0  0  0  0
   -0.0270   -2.4961   -2.8125 C   0  0  0  0  0
    0.8794   -2.1494   -3.8418 C   0  0  0  0  0
   -0.1086    0.7798   -6.0234 C   0  0  0  0  0
    2.2949    0.2502   -7.3340 C   0  0  0  0  0
    0.2605    1.5708   -7.1113 C   0  0  0  0  0
    1.4702    1.3032   -7.7559 C   0  0  0  0  0
   -1.1567   -1.0283    0.0472 C   0  0  2  0  0
   -1.8584   -3.1250    2.2012 C   0  0  0  0  0
    2.7832   -1.6411   -5.8125 C   0  0  0  0  0
   -0.0601   -0.0539   -0.4840 C   0  0  0  0  0
   -2.7328   -1.3117    4.3557 H   0  0  0  0  0
   -3.8949   -0.8118    0.4939 H   0  0  0  0  0
   -5.3585   -1.2222   -1.8193 H   0  0  0  0  0
   -0.0340   -3.2368   -2.0683 H   0  0  0  0  0
    1.8057   -2.5340   -4.1524 H   0  0  0  0  0
   -1.0049    0.9645   -5.5086 H   0  0  0  0  0
    3.1910    0.0836   -7.8553 H   0  0  0  0  0
   -0.3668    2.3498   -7.4309 H   0  0  0  0  0
    1.7592    1.9037   -8.5673 H   0  0  0  0  0
   -0.6143   -1.9273    0.0501 H   0  0  0  0  0
   -2.4302   -3.4441    1.3804 H   0  0  0  0  0
   -0.8534   -3.3898    2.0517 H   0  0  0  0  0
   -2.2149   -3.5839    3.0757 H   0  0  0  0  0
   -0.4528    0.9183   -0.5393 H   0  0  0  0  0
    0.2485   -0.3616   -1.4393 H   0  0  0  0  0
    0.7620   -0.0627    0.1691 H   0  0  0  0  0
  1  8  1  0  0  0
  1  9  1  0  0  0
  2  3  1  0  0  0
  2 11  2  0  0  0
  3 12  2  0  0  0
  4 10  1  0  0  0
  4 13  1  0  0  0
  4 23  1  0  0  0
  5 11  1  0  0  0
  5 12  1  0  0  0
  5 24  1  0  0  0
  6 10  2  0  0  0
  6 14  1  0  0  0
  7 25  3  0  0  0
  8 10  1  0  0  0
  8 17  2  0  0  0
  9 15  1  0  0  0
  9 18  2  0  0  0
 11 23  1  0  0  0
 12 27  1  0  0  0
 13 14  2  0  0  0
 13 28  1  0  0  0
 14 29  1  0  0  0
 15 16  2  0  0  0
 15 19  1  0  0  0
 16 20  1  0  0  0
 16 25  1  0  0  0
 17 18  1  0  0  0
 17 30  1  0  0  0
 18 31  1  0  0  0
 19 21  2  0  0  0
 19 32  1  0  0  0
 20 22  2  0  0  0
 20 33  1  0  0  0
 21 22  1  0  0  0
 21 34  1  0  0  0
 22 35  1  0  0  0
 23 26  1  0  0  0
 23 36  1  0  0  0
 24 37  1  0  0  0
 24 38  1  0  0  0
 24 39  1  0  0  0
 26 40  1  0  0  0
 26 41  1  0  0  0
 26 42  1  0  0  0
M  END
> <QPhAR in domain>
True

> <s_m_source_file>
iis-005-000-000--005-499-999_filtered_optim.maegz

> <r_epik_Charging_Adjusted_Penalty>
0.131346

> <PRICERANGE_1MG>
< 50

> <Name>
MolPort-020-206-301

> <i_m_Source_File_Index>
7320

> <i_lp_mmshare_version>
36015

> <PUBCHEM_EXT_DATASOURCE_URL>
https://www.molport.com

> <s_lp_Force_Field>
OPLS3

> <r_epik_Ionization_Penalty>
0.070103

> <r_epik_State_Penalty>
0.0613499

> <IS_SC>
Yes

> <r_epik_Ionization_Penalty_Neutral>
1.07083E-4

> <s_m_Source_Path>
/home/mrgulotta/data_server/CADD/LIBRERIE/OTTIMIZZATE/MOLPORT/ALL_STOCK_COMPOUNDS_FILTERED_NEW

> <i_m_source_file_index>
7320

> <PUBCHEM_EXT_SUBSTANCE_URL>
https://www.molport.com/shop/molecule-link/MolPort-020-206-301

> <VERIFIED_AMOUNT_MG>
5

> <r_epik_Ionization_Penalty_Charging>
0.0699959

> <r_lp_Energy>
25.2599

> <QC_METHOD>
LCMS

> <QPhAR prediction>
6.9096769511251

> <i_epik_Tot_abs_Q>
0

> <i_epik_Tot_Q>
0

> <cdk:Title>
null

> <b_lp_Chiralities_Consistent>
1

> <s_m_entry_name>
iis-005-000-000--005-499-999_filtered.7320

> <i_f3d_flags>
0

> <PRICERANGE_5MG>
50 - 100

> <COMPOUND_STATE>
FILM

> <s_m_entry_id>
7320

> <Molecule_Name>
MolPort-020-206-301

> <Score>
0.9295311921486581

> <BEST_LEAD_TIME>
12

> <s_lp_Variant>
MolPort-020-206-301-1

> <s_m_Source_File>
iis-005-000-000--005-499-999_filtered.sdf

> <r_lp_tautomer_probability>
1.0

> <UNVERIFIED_AMOUNT_MG>
5

$$$$
MolPort-020-219-413
XX    ILIB07022204093D

 44 47  0  0  1  0              1 V2000
   -1.9028   -2.1660    1.9316 S   0  0  0  0  0
    2.4805   -2.3594   -5.0645 N   0  0  0  0  0
    3.5918   -2.6816   -4.3848 N   0  0  0  0  0
   -2.3457   -0.6943   -1.1538 N   0  0  0  0  0
   -2.3242   -0.3884    3.7168 N   0  0  0  0  0
   -3.3086   -2.3564   -2.3018 N   0  0  0  0  0
   -2.6055   -1.6445    3.4258 C   0  0  0  0  0
   -1.2549   -0.6045    1.6475 C   0  0  0  0  0
   -2.2090   -1.6558   -2.1299 C   0  0  0  0  0
   -1.5840    0.2068    2.7168 C   0  0  0  0  0
    2.6777   -2.2305   -6.4043 C   0  0  0  0  0
    4.5352   -2.7949   -5.3320 C   0  0  0  0  0
   -3.6348   -0.8086   -0.6863 C   0  0  0  0  0
   -4.1992   -1.8345   -1.4062 C   0  0  0  0  0
    1.3022   -2.1855   -4.3516 C   0  0  0  0  0
   -0.9988   -1.8423   -2.8789 C   0  0  0  0  0
   -1.0405   -1.6670   -4.2676 C   0  0  0  0  0
    4.0078   -2.4961   -6.6172 C   0  0  0  0  0
    0.1209   -1.8501   -5.0176 C   0  0  0  0  0
    1.3232   -2.3535   -2.9600 C   0  0  0  0  0
    0.1721   -2.1846   -2.1758 C   0  0  0  0  0
   -1.3394    0.2436   -0.7119 C   0  0  0  0  0
   -0.4780   -0.2777    0.4421 C   0  0  0  0  0
   -1.1973    1.6172    2.8516 C   0  0  0  0  0
   -2.3086   -1.2969   -4.9492 C   0  0  0  0  0
   -3.1856   -2.3104    3.9938 H   0  0  0  0  0
    1.8753   -1.9732   -7.0307 H   0  0  0  0  0
    5.5127   -3.0738   -5.0687 H   0  0  0  0  0
   -3.9767   -0.1687    0.0727 H   0  0  0  0  0
   -5.1708   -2.2274   -1.3423 H   0  0  0  0  0
    4.4041   -2.4470   -7.5883 H   0  0  0  0  0
    0.1198   -1.7408   -6.0619 H   0  0  0  0  0
    2.2181   -2.6131   -2.4760 H   0  0  0  0  0
    0.1439   -2.2968   -1.1322 H   0  0  0  0  0
   -0.6933    0.4653   -1.5093 H   0  0  0  0  0
   -1.8038    1.1257   -0.3821 H   0  0  0  0  0
    0.2270    0.4660    0.6710 H   0  0  0  0  0
    0.0187   -1.1380    0.1019 H   0  0  0  0  0
   -0.6894    1.7556    3.7601 H   0  0  0  0  0
   -0.5684    1.8854    2.0547 H   0  0  0  0  0
   -2.0576    2.2190    2.8364 H   0  0  0  0  0
   -2.2329   -0.3182   -5.3219 H   0  0  0  0  0
   -2.4860   -1.9609   -5.7430 H   0  0  0  0  0
   -3.1026   -1.3501   -4.2642 H   0  0  0  0  0
  1  7  1  0  0  0
  1  8  1  0  0  0
  2  3  1  0  0  0
  2 11  1  0  0  0
  2 15  1  0  0  0
  3 12  2  0  0  0
  4  9  1  0  0  0
  4 13  1  0  0  0
  4 22  1  0  0  0
  5  7  2  0  0  0
  5 10  1  0  0  0
  6  9  2  0  0  0
  6 14  1  0  0  0
  7 26  1  0  0  0
  8 10  2  0  0  0
  8 23  1  0  0  0
  9 16  1  0  0  0
 10 24  1  0  0  0
 11 18  2  0  0  0
 11 27  1  0  0  0
 12 18  1  0  0  0
 12 28  1  0  0  0
 13 14  2  0  0  0
 13 29  1  0  0  0
 14 30  1  0  0  0
 15 19  2  0  0  0
 15 20  1  0  0  0
 16 17  2  0  0  0
 16 21  1  0  0  0
 17 19  1  0  0  0
 17 25  1  0  0  0
 18 31  1  0  0  0
 19 32  1  0  0  0
 20 21  2  0  0  0
 20 33  1  0  0  0
 21 34  1  0  0  0
 22 23  1  0  0  0
 22 35  1  0  0  0
 22 36  1  0  0  0
 23 37  1  0  0  0
 23 38  1  0  0  0
 24 39  1  0  0  0
 24 40  1  0  0  0
 24 41  1  0  0  0
 25 42  1  0  0  0
 25 43  1  0  0  0
 25 44  1  0  0  0
M  END
> <QPhAR in domain>
True

> <s_m_source_file>
iis-005-000-000--005-499-999_filtered_optim.maegz

> <r_epik_Charging_Adjusted_Penalty>
0.133142

> <PRICERANGE_1MG>
< 50

> <Name>
MolPort-020-219-413

> <i_m_Source_File_Index>
11198

> <i_lp_mmshare_version>
36015

> <PUBCHEM_EXT_DATASOURCE_URL>
https://www.molport.com

> <s_lp_Force_Field>
OPLS3

> <r_epik_Ionization_Penalty>
0.0710032

> <r_epik_State_Penalty>
0.0622212

> <IS_SC>
Yes

> <r_epik_Ionization_Penalty_Neutral>
8.28367E-5

> <s_m_Source_Path>
/home/mrgulotta/data_server/CADD/LIBRERIE/OTTIMIZZATE/MOLPORT/ALL_STOCK_COMPOUNDS_FILTERED_NEW

> <i_m_source_file_index>
11198

> <PUBCHEM_EXT_SUBSTANCE_URL>
https://www.molport.com/shop/molecule-link/MolPort-020-219-413

> <VERIFIED_AMOUNT_MG>
1

> <r_epik_Ionization_Penalty_Charging>
0.0709204

> <r_lp_Energy>
26.7847

> <QC_METHOD>
LCMS

> <QPhAR prediction>
6.9096769511251

> <i_epik_Tot_abs_Q>
0

> <i_epik_Tot_Q>
0

> <cdk:Title>
null

> <b_lp_Chiralities_Consistent>
1

> <s_m_entry_name>
iis-005-000-000--005-499-999_filtered.11198

> <i_f3d_flags>
0

> <COMPOUND_STATE>
FILM

> <s_m_entry_id>
11198

> <Score>
0.9341215020073793

> <Molecule_Name>
MolPort-020-219-413

> <BEST_LEAD_TIME>
12

> <s_lp_Variant>
MolPort-020-219-413-1

> <s_m_Source_File>
iis-005-000-000--005-499-999_filtered.sdf

> <r_lp_tautomer_probability>
1.0

> <UNVERIFIED_AMOUNT_MG>
1

$$$$
MolPort-006-633-645
XX    ILIB07022204093D

 62 65  0  0  1  0              1 V2000
   -4.0938   -3.0410    4.1230 O   0  0  0  0  0
   -4.5293   -2.2920   -5.0215 O   0  0  0  0  0
   -2.6416   -1.0337    0.8647 N   0  0  0  0  0
   -3.2314   -1.8188    1.7778 N   0  0  0  0  0
   -3.1113   -1.5474    5.4648 N   0  0  0  0  0
   -3.7607   -2.4688    6.2598 N   0  0  0  0  0
   -2.2568   -2.5625   -5.3242 N   0  0  0  0  0
   -3.3242   -1.9106    4.2148 C   0  0  0  0  0
   -4.3281   -3.3281    5.4414 C   0  0  0  0  0
   -2.8643   -1.2881    2.9551 C   0  0  0  0  0
   -1.9370   -0.0124    1.4028 C   0  0  0  0  0
   -2.8203   -1.3384   -0.4773 C   0  0  0  0  0
   -3.2051   -1.9756   -3.1289 C   0  0  0  0  0
   -2.0664   -0.1285    2.7637 C   0  0  0  0  0
   -3.6074   -2.4492   -0.8093 C   0  0  0  0  0
   -2.2070   -0.5088   -1.4355 C   0  0  0  0  0
   -3.7949   -2.7793   -2.1504 C   0  0  0  0  0
   -2.4229   -0.8662   -2.7744 C   0  0  0  0  0
   -3.3936   -2.2793   -4.5410 C   0  0  0  0  0
   -0.8994   -2.4980   -4.8633 C   0  0  0  0  0
   -2.4229   -2.8789   -6.7363 C   0  0  0  0  0
   -1.2358    0.9790    0.5620 C   0  0  0  0  0
   -5.1465   -4.5117    5.7422 C   0  0  0  0  0
   -0.2815   -3.9033   -4.9492 C   0  0  0  0  0
   -0.0988   -1.5088   -5.7188 C   0  0  0  0  0
    1.1934   -3.8926   -4.5566 C   0  0  0  0  0
    1.3774   -1.4971   -5.3301 C   0  0  0  0  0
    1.9888   -2.8936   -5.3906 C   0  0  0  0  0
   -2.1953    1.7246   -0.3911 C   0  0  0  0  0
   -0.1713    0.2660   -0.2952 C   0  0  0  0  0
   -0.5398    2.0332    1.4473 C   0  0  0  0  0
   -1.7251    0.4168    3.5936 H   0  0  0  0  0
   -4.0499   -3.0247   -0.0507 H   0  0  0  0  0
   -1.6331    0.3145   -1.1268 H   0  0  0  0  0
   -4.3667   -3.6140   -2.4312 H   0  0  0  0  0
   -1.9794   -0.2763   -3.5213 H   0  0  0  0  0
   -0.8831   -2.1617   -3.8687 H   0  0  0  0  0
   -2.6259   -1.9982   -7.2708 H   0  0  0  0  0
   -1.5413   -3.3156   -7.1032 H   0  0  0  0  0
   -3.2212   -3.5510   -6.8528 H   0  0  0  0  0
   -6.0340   -4.2122    6.2166 H   0  0  0  0  0
   -4.6111   -5.1556    6.3756 H   0  0  0  0  0
   -5.3789   -5.0127    4.8492 H   0  0  0  0  0
   -0.3602   -4.2607   -5.9334 H   0  0  0  0  0
   -0.7929   -4.5508   -4.2998 H   0  0  0  0  0
   -0.4840   -0.5409   -5.5874 H   0  0  0  0  0
   -0.1732   -1.7808   -6.7302 H   0  0  0  0  0
    1.6021   -4.8483   -4.7053 H   0  0  0  0  0
    1.2844   -3.6266   -3.5449 H   0  0  0  0  0
    1.4783   -1.1347   -4.3498 H   0  0  0  0  0
    1.9080   -0.8756   -5.9894 H   0  0  0  0  0
    2.9728   -2.8401   -5.0281 H   0  0  0  0  0
    2.0016   -3.2062   -6.3929 H   0  0  0  0  0
   -3.1092    1.8966    0.0964 H   0  0  0  0  0
   -2.3603    1.1413   -1.2484 H   0  0  0  0  0
   -1.7688    2.6428   -0.6693 H   0  0  0  0  0
    0.3957   -0.3752    0.3129 H   0  0  0  0  0
    0.4601    0.9805   -0.7348 H   0  0  0  0  0
   -0.6447   -0.2929   -1.0475 H   0  0  0  0  0
   -1.1242    2.9050    1.4784 H   0  0  0  0  0
   -0.4256    1.6535    2.4196 H   0  0  0  0  0
    0.4041    2.2587    1.0465 H   0  0  0  0  0
  1  8  1  0  0  0
  1  9  1  0  0  0
  2 19  2  0  0  0
  3  4  1  0  0  0
  3 11  1  0  0  0
  3 12  1  0  0  0
  4 10  2  0  0  0
  5  6  1  0  0  0
  5  8  2  0  0  0
  6  9  2  0  0  0
  7 19  1  0  0  0
  7 20  1  0  0  0
  7 21  1  0  0  0
  8 10  1  0  0  0
  9 23  1  0  0  0
 10 14  1  0  0  0
 11 14  2  0  0  0
 11 22  1  0  0  0
 12 15  2  0  0  0
 12 16  1  0  0  0
 13 17  2  0  0  0
 13 18  1  0  0  0
 13 19  1  0  0  0
 14 32  1  0  0  0
 15 17  1  0  0  0
 15 33  1  0  0  0
 16 18  2  0  0  0
 16 34  1  0  0  0
 17 35  1  0  0  0
 18 36  1  0  0  0
 20 24  1  0  0  0
 20 25  1  0  0  0
 20 37  1  0  0  0
 21 38  1  0  0  0
 21 39  1  0  0  0
 21 40  1  0  0  0
 22 29  1  0  0  0
 22 30  1  0  0  0
 22 31  1  0  0  0
 23 41  1  0  0  0
 23 42  1  0  0  0
 23 43  1  0  0  0
 24 26  1  0  0  0
 24 44  1  0  0  0
 24 45  1  0  0  0
 25 27  1  0  0  0
 25 46  1  0  0  0
 25 47  1  0  0  0
 26 28  1  0  0  0
 26 48  1  0  0  0
 26 49  1  0  0  0
 27 28  1  0  0  0
 27 50  1  0  0  0
 27 51  1  0  0  0
 28 52  1  0  0  0
 28 53  1  0  0  0
 29 54  1  0  0  0
 29 55  1  0  0  0
 29 56  1  0  0  0
 30 57  1  0  0  0
 30 58  1  0  0  0
 30 59  1  0  0  0
 31 60  1  0  0  0
 31 61  1  0  0  0
 31 62  1  0  0  0
M  END
> <QPhAR in domain>
True

> <s_m_source_file>
iis-002-500-000--002-999-999_filtered_optim.maegz

> <r_epik_Charging_Adjusted_Penalty>
0.0

> <PRICERANGE_1MG>
50 - 100

> <Name>
MolPort-006-633-645

> <i_m_Source_File_Index>
43660

> <i_lp_mmshare_version>
36015

> <PUBCHEM_EXT_DATASOURCE_URL>
https://www.molport.com

> <s_lp_Force_Field>
OPLS3

> <r_epik_Ionization_Penalty>
8.19844E-6

> <r_epik_State_Penalty>
0.0

> <IS_SC>
Yes

> <r_epik_Ionization_Penalty_Neutral>
8.19844E-6

> <s_m_Source_Path>
/home/mrgulotta/data_server/CADD/LIBRERIE/OTTIMIZZATE/MOLPORT/ALL_STOCK_COMPOUNDS_FILTERED_NEW

> <i_m_source_file_index>
43660

> <PUBCHEM_EXT_SUBSTANCE_URL>
https://www.molport.com/shop/molecule-link/MolPort-006-633-645

> <VERIFIED_AMOUNT_MG>
5

> <r_epik_Ionization_Penalty_Charging>
0.0

> <r_lp_Energy>
42.3824

> <QC_METHOD>
LCMS

> <QPhAR prediction>
6.9096769511251

> <i_epik_Tot_abs_Q>
0

> <i_epik_Tot_Q>
0

> <cdk:Title>
null

> <b_lp_Chiralities_Consistent>
1

> <s_m_entry_name>
iis-002-500-000--002-999-999_filtered.43660

> <i_f3d_flags>
0

> <PRICERANGE_5MG>
50 - 100

> <COMPOUND_STATE>
SOLID

> <s_m_entry_id>
156453

> <Molecule_Name>
MolPort-006-633-645

> <Score>
0.921031237729976

> <BEST_LEAD_TIME>
10

> <s_lp_Variant>
MolPort-006-633-645-1

> <s_m_Source_File>
iis-002-500-000--002-999-999_filtered.sdf

> <r_lp_tautomer_probability>
1.0

> <UNVERIFIED_AMOUNT_MG>
5.0

$$$$
MolPort-002-865-277
XX    ILIB07022204093D

 49 52  0  0  1  0              1 V2000
   -5.1035    0.4730    5.6680 S   0  0  0  0  0
   -6.2051   -0.3075   -2.3154 F   0  0  0  0  0
   -6.2129   -2.4102   -1.7886 F   0  0  0  0  0
   -5.9023   -1.8120   -3.8555 F   0  0  0  0  0
   -0.0200   -2.9600   -3.8232 F   0  0  0  0  0
   -0.0098   -0.8564   -4.3496 F   0  0  0  0  0
   -1.4072   -2.2100   -5.3184 F   0  0  0  0  0
   -5.0938   -0.5771    6.6660 O   0  0  0  0  0
   -5.1035    1.8672    6.0645 O   0  0  0  0  0
   -0.4624   -0.3290    2.1152 O   0  0  0  0  0
   -8.8086    0.2155    3.0986 O   0  0  0  0  0
   -2.0371   -0.7561    0.4578 N   0  0  0  0  0
   -3.7070   -1.1328   -1.0933 N   0  0  0  0  0
   -6.3965    0.2002    4.5820 N   0  0  0  0  0
   -3.7139    0.2220    4.6016 C   0  0  0  0  0
   -0.7261   -0.6631    0.8071 C   0  0  0  0  0
   -1.5488   -0.1236    2.9346 C   0  0  0  0  0
   -2.4033   -1.0649   -0.7930 C   0  0  0  0  0
   -4.1133   -1.4458   -2.3525 C   0  0  0  0  0
   -1.4395   -1.3164   -1.7700 C   0  0  0  0  0
   -1.8530   -1.6406   -3.0684 C   0  0  0  0  0
   -3.1982    1.3252    3.9072 C   0  0  0  0  0
   -3.1787   -1.0762    4.5000 C   0  0  0  0  0
    0.2837   -0.9141   -0.1197 C   0  0  0  0  0
   -2.1084    1.1504    3.0557 C   0  0  0  0  0
   -2.0781   -1.2139    3.6396 C   0  0  0  0  0
   -3.2070   -1.7061   -3.3682 C   0  0  0  0  0
   -0.0858   -1.2437   -1.4219 C   0  0  0  0  0
   -5.5820   -1.4917   -2.5713 C   0  0  0  0  0
   -0.8389   -1.9126   -4.1191 C   0  0  0  0  0
   -8.5352   -0.8479    4.0117 C   0  0  0  0  0
   -7.6035    0.7085    2.5117 C   0  0  0  0  0
   -7.6602   -0.3529    5.1543 C   0  0  0  0  0
   -6.6875    1.2754    3.5859 C   0  0  0  0  0
   -3.6326    2.2731    4.0307 H   0  0  0  0  0
   -3.6040   -1.8638    5.0488 H   0  0  0  0  0
    1.2907   -0.8523    0.1714 H   0  0  0  0  0
   -1.7078    1.9537    2.5111 H   0  0  0  0  0
   -1.6502   -2.1667    3.5315 H   0  0  0  0  0
   -3.5516   -1.9444   -4.3310 H   0  0  0  0  0
    0.6528   -1.4377   -2.1426 H   0  0  0  0  0
   -8.0352   -1.6218    3.5081 H   0  0  0  0  0
   -9.4380   -1.2123    4.4050 H   0  0  0  0  0
   -7.8343    1.4665    1.8227 H   0  0  0  0  0
   -7.1089   -0.0749    2.0176 H   0  0  0  0  0
   -7.4329   -1.1484    5.8008 H   0  0  0  0  0
   -8.1615    0.3996    5.6881 H   0  0  0  0  0
   -7.1581    2.0809    4.0678 H   0  0  0  0  0
   -5.7892    1.6034    3.1524 H   0  0  0  0  0
  1  8  2  0  0  0
  1  9  2  0  0  0
  1 14  1  0  0  0
  1 15  1  0  0  0
  2 29  1  0  0  0
  3 29  1  0  0  0
  4 29  1  0  0  0
  5 30  1  0  0  0
  6 30  1  0  0  0
  7 30  1  0  0  0
 10 16  1  0  0  0
 10 17  1  0  0  0
 11 31  1  0  0  0
 11 32  1  0  0  0
 12 16  2  0  0  0
 12 18  1  0  0  0
 13 18  2  0  0  0
 13 19  1  0  0  0
 14 33  1  0  0  0
 14 34  1  0  0  0
 15 22  2  0  0  0
 15 23  1  0  0  0
 16 24  1  0  0  0
 17 25  2  0  0  0
 17 26  1  0  0  0
 18 20  1  0  0  0
 19 27  2  0  0  0
 19 29  1  0  0  0
 20 21  2  0  0  0
 20 28  1  0  0  0
 21 27  1  0  0  0
 21 30  1  0  0  0
 22 25  1  0  0  0
 22 35  1  0  0  0
 23 26  2  0  0  0
 23 36  1  0  0  0
 24 28  2  0  0  0
 24 37  1  0  0  0
 25 38  1  0  0  0
 26 39  1  0  0  0
 27 40  1  0  0  0
 28 41  1  0  0  0
 31 33  1  0  0  0
 31 42  1  0  0  0
 31 43  1  0  0  0
 32 34  1  0  0  0
 32 44  1  0  0  0
 32 45  1  0  0  0
 33 46  1  0  0  0
 33 47  1  0  0  0
 34 48  1  0  0  0
 34 49  1  0  0  0
M  END
> <QPhAR in domain>
True

> <s_m_source_file>
iis-001-000-000--001-499-999_minus_1_wrong_filtered_optim.maegz

> <PRICERANGE_50MG>
100 - 250

> <r_epik_Charging_Adjusted_Penalty>
0.0

> <PRICERANGE_1MG>
< 50

> <Name>
MolPort-002-865-277

> <i_m_Source_File_Index>
33995

> <i_lp_mmshare_version>
36015

> <PUBCHEM_EXT_DATASOURCE_URL>
https://www.molport.com

> <s_lp_Force_Field>
OPLS3

> <r_epik_Ionization_Penalty>
5.42046E-12

> <r_epik_State_Penalty>
0.0

> <IS_SC>
Yes

> <r_epik_Ionization_Penalty_Neutral>
5.42046E-12

> <s_m_Source_Path>
/home/mrgulotta/data_server/CADD/LIBRERIE/OTTIMIZZATE/MOLPORT/ALL_STOCK_COMPOUNDS_FILTERED_NEW

> <i_m_source_file_index>
33995

> <PUBCHEM_EXT_SUBSTANCE_URL>
https://www.molport.com/shop/molecule-link/MolPort-002-865-277

> <VERIFIED_AMOUNT_MG>
3500

> <r_epik_Ionization_Penalty_Charging>
0.0

> <r_lp_Energy>
42.6513

> <QPhAR prediction>
6.9096769511251

> <i_epik_Tot_abs_Q>
0

> <i_epik_Tot_Q>
0

> <cdk:Title>
null

> <b_lp_Chiralities_Consistent>
1

> <s_m_entry_name>
iis-001-000-000--001-499-999_minus_1_wrong_filtered.33995

> <i_f3d_flags>
0

> <PRICERANGE_5MG>
< 50

> <COMPOUND_STATE>
N/A

> <s_m_entry_id>
119744

> <Molecule_Name>
MolPort-002-865-277

> <Score>
0.9195954742088143

> <BEST_LEAD_TIME>
2

> <s_lp_Variant>
MolPort-002-865-277-1

> <s_m_Source_File>
iis-001-000-000--001-499-999_minus_1_wrong_filtered.sdf

> <r_lp_tautomer_probability>
1.0

> <UNVERIFIED_AMOUNT_MG>
3500.0

$$$$
MolPort-010-339-741
XX    ILIB07022204093D

 47 49  0  0  1  0              1 V2000
    0.6841   -0.2374    1.6694 S   0  0  0  0  0
   -0.8855    1.3223   -3.7500 O   0  0  0  0  0
   -4.8223   -1.2920   -1.1519 N   0  0  0  0  0
   -5.1680   -1.1724   -2.4443 N   0  0  0  0  0
   -2.9150   -1.0122    0.2946 N   0  0  0  0  0
    1.0728   -5.1152   -2.2920 N   0  0  0  0  0
   -0.2688   -0.8628   -4.1621 N   0  0  0  0  0
   -0.9668   -0.6714    1.5200 C   0  0  0  0  0
    0.6887   -0.5120    3.3623 C   0  0  0  0  0
   -3.5146   -0.9773   -0.9065 C   0  0  0  0  0
   -1.6182   -0.6587    0.2408 C   0  0  0  0  0
   -4.0371   -0.7698   -3.0283 C   0  0  0  0  0
   -2.9492   -0.6277   -2.1309 C   0  0  0  0  0
   -1.5825   -0.2482   -2.1738 C   0  0  0  0  0
   -1.5205   -0.9661    2.7510 C   0  0  0  0  0
   -0.5576   -0.9077    3.7969 C   0  0  0  0  0
   -0.9275   -0.2939   -0.9148 C   0  0  0  0  0
   -0.8972    0.1396   -3.3994 C   0  0  0  0  0
   -5.8262   -1.7192   -0.2051 C   0  0  0  0  0
    1.0801   -3.9941   -2.5898 C   0  0  0  0  0
   -0.1738   -2.2461   -3.7920 C   0  0  0  0  0
    0.4037   -0.5042   -5.3789 C   0  0  0  0  0
   -4.0781   -0.5320   -4.4766 C   0  0  0  0  0
    1.0884   -2.5674   -2.9727 C   0  0  2  0  0
   -0.5291   -0.5649   -6.5801 C   0  0  0  0  0
    2.3789   -2.2480   -3.7305 C   0  0  0  0  0
    1.5707   -0.3720    3.9145 H   0  0  0  0  0
   -2.5421   -1.1968    2.8255 H   0  0  0  0  0
   -0.7140   -1.1292    4.8113 H   0  0  0  0  0
    0.0919   -0.0480   -0.8616 H   0  0  0  0  0
   -5.3623   -2.2071    0.6006 H   0  0  0  0  0
   -6.3524   -0.8822    0.1486 H   0  0  0  0  0
   -6.4936   -2.3788   -0.6763 H   0  0  0  0  0
   -1.0064   -2.5106   -3.2095 H   0  0  0  0  0
   -0.1499   -2.8393   -4.6581 H   0  0  0  0  0
    0.7740    0.4750   -5.2986 H   0  0  0  0  0
    1.2005   -1.1671   -5.5468 H   0  0  0  0  0
   -4.5606    0.3807   -4.6679 H   0  0  0  0  0
   -3.0986   -0.4958   -4.8532 H   0  0  0  0  0
   -4.6044   -1.3109   -4.9444 H   0  0  0  0  0
    1.1036   -1.9729   -2.1074 H   0  0  0  0  0
   -1.0580   -1.4719   -6.5670 H   0  0  0  0  0
   -1.2067    0.2361   -6.5378 H   0  0  0  0  0
    0.0339   -0.5008   -7.4641 H   0  0  0  0  0
    2.3924   -2.7772   -4.6373 H   0  0  0  0  0
    2.4240   -1.2173   -3.9260 H   0  0  0  0  0
    3.2058   -2.5303   -3.1482 H   0  0  0  0  0
  1  8  1  0  0  0
  1  9  1  0  0  0
  2 18  2  0  0  0
  3  4  1  0  0  0
  3 10  1  0  0  0
  3 19  1  0  0  0
  4 12  2  0  0  0
  5 10  2  0  0  0
  5 11  1  0  0  0
  6 20  3  0  0  0
  7 18  1  0  0  0
  7 21  1  0  0  0
  7 22  1  0  0  0
  8 11  1  0  0  0
  8 15  2  0  0  0
  9 16  2  0  0  0
  9 27  1  0  0  0
 10 13  1  0  0  0
 11 17  2  0  0  0
 12 13  1  0  0  0
 12 23  1  0  0  0
 13 14  2  0  0  0
 14 17  1  0  0  0
 14 18  1  0  0  0
 15 16  1  0  0  0
 15 28  1  0  0  0
 16 29  1  0  0  0
 17 30  1  0  0  0
 19 31  1  0  0  0
 19 32  1  0  0  0
 19 33  1  0  0  0
 20 24  1  0  0  0
 21 24  1  0  0  0
 21 34  1  0  0  0
 21 35  1  0  0  0
 22 25  1  0  0  0
 22 36  1  0  0  0
 22 37  1  0  0  0
 23 38  1  0  0  0
 23 39  1  0  0  0
 23 40  1  0  0  0
 24 26  1  0  0  0
 24 41  1  0  0  0
 25 42  1  0  0  0
 25 43  1  0  0  0
 25 44  1  0  0  0
 26 45  1  0  0  0
 26 46  1  0  0  0
 26 47  1  0  0  0
M  END
> <QPhAR in domain>
True

> <s_m_source_file>
iis-004-000-000--004-499-999_filtered_optim.maegz

> <r_epik_Charging_Adjusted_Penalty>
0.0

> <PRICERANGE_1MG>
50 - 100

> <Name>
MolPort-010-339-741

> <i_m_Source_File_Index>
40525

> <i_lp_mmshare_version>
36015

> <PUBCHEM_EXT_DATASOURCE_URL>
https://www.molport.com

> <s_lp_Force_Field>
OPLS3

> <r_epik_Ionization_Penalty>
6.52867E-8

> <r_epik_State_Penalty>
0.0

> <IS_SC>
Yes

> <r_epik_Ionization_Penalty_Neutral>
6.52867E-8

> <s_m_Source_Path>
/home/mrgulotta/data_server/CADD/LIBRERIE/OTTIMIZZATE/MOLPORT/ALL_STOCK_COMPOUNDS_FILTERED_NEW

> <i_m_source_file_index>
40525

> <PUBCHEM_EXT_SUBSTANCE_URL>
https://www.molport.com/shop/molecule-link/MolPort-010-339-741

> <VERIFIED_AMOUNT_MG>
30

> <r_epik_Ionization_Penalty_Charging>
0.0

> <r_lp_Energy>
30.6646

> <QPhAR prediction>
6.9096769511251

> <i_epik_Tot_abs_Q>
0

> <i_epik_Tot_Q>
0

> <cdk:Title>
null

> <b_lp_Chiralities_Consistent>
1

> <s_m_entry_name>
iis-004-000-000--004-499-999_filtered.40525

> <i_f3d_flags>
0

> <PRICERANGE_5MG>
50 - 100

> <COMPOUND_STATE>
SOLID

> <s_m_entry_id>
111303

> <Score>
0.9306672194473471

> <Molecule_Name>
MolPort-010-339-741

> <BEST_LEAD_TIME>
10

> <s_lp_Variant>
MolPort-010-339-741-1

> <s_m_Source_File>
iis-004-000-000--004-499-999_filtered.sdf

> <r_lp_tautomer_probability>
1.0

> <UNVERIFIED_AMOUNT_MG>
30

$$$$
MolPort-005-284-091
XX    ILIB07022204093D

 34 37  0  0  1  0              1 V2000
   -0.1392   -0.3412    2.0283 O   0  0  0  0  0
   -3.1201   -0.7590    0.1117 N   0  0  0  0  0
   -1.4648   -0.3646    1.7363 C   0  0  0  0  0
   -0.0316    0.0256    3.3379 C   0  0  0  0  0
   -3.5107   -1.1108   -1.1274 C   0  0  0  0  0
   -1.7969   -0.7351    0.3893 C   0  0  0  0  0
   -2.5859   -1.4463   -2.1377 C   0  0  0  0  0
   -1.2168   -1.3828   -1.8076 C   0  0  0  0  0
   -0.2217   -1.7051   -2.7910 C   0  0  0  0  0
   -2.2100   -0.0153    2.8369 C   0  0  0  0  0
   -1.2832    0.2405    3.8750 C   0  0  0  0  0
   -4.8730   -1.1470   -1.4287 C   0  0  0  0  0
   -0.8098   -1.0410   -0.5225 C   0  0  0  0  0
   -3.0566   -1.8154   -3.4131 C   0  0  0  0  0
    0.8345   -0.8059   -2.9902 C   0  0  0  0  0
   -0.3546   -2.9141   -3.5010 C   0  0  0  0  0
   -5.3398   -1.5054   -2.6982 C   0  0  0  0  0
   -4.4199   -1.8457   -3.6875 C   0  0  0  0  0
    1.8086   -1.0938   -3.9443 C   0  0  0  0  0
    0.6470   -3.1738   -4.4473 C   0  0  0  0  0
    1.7114   -2.2861   -4.6641 C   0  0  0  0  0
    0.9153    0.1054    3.7846 H   0  0  0  0  0
   -3.2577    0.0140    2.7738 H   0  0  0  0  0
   -1.3805    0.5350    4.8781 H   0  0  0  0  0
   -5.5802   -0.9010   -0.6926 H   0  0  0  0  0
    0.1993   -1.0099   -0.2340 H   0  0  0  0  0
   -2.3756   -2.0718   -4.1701 H   0  0  0  0  0
    0.8872    0.0761   -2.4229 H   0  0  0  0  0
   -1.1654   -3.5518   -3.3048 H   0  0  0  0  0
   -6.3712   -1.5153   -2.8948 H   0  0  0  0  0
   -4.7573   -2.1254   -4.6417 H   0  0  0  0  0
    2.5963   -0.4196   -4.1104 H   0  0  0  0  0
    0.6139   -4.0541   -5.0186 H   0  0  0  0  0
    2.4614   -2.5474   -5.3509 H   0  0  0  0  0
  1  3  1  0  0  0
  1  4  1  0  0  0
  2  5  2  0  0  0
  2  6  1  0  0  0
  3  6  1  0  0  0
  3 10  2  0  0  0
  4 11  2  0  0  0
  4 22  1  0  0  0
  5  7  1  0  0  0
  5 12  1  0  0  0
  6 13  2  0  0  0
  7  8  2  0  0  0
  7 14  1  0  0  0
  8  9  1  0  0  0
  8 13  1  0  0  0
  9 15  2  0  0  0
  9 16  1  0  0  0
 10 11  1  0  0  0
 10 23  1  0  0  0
 11 24  1  0  0  0
 12 17  2  0  0  0
 12 25  1  0  0  0
 13 26  1  0  0  0
 14 18  2  0  0  0
 14 27  1  0  0  0
 15 19  1  0  0  0
 15 28  1  0  0  0
 16 20  2  0  0  0
 16 29  1  0  0  0
 17 18  1  0  0  0
 17 30  1  0  0  0
 18 31  1  0  0  0
 19 21  2  0  0  0
 19 32  1  0  0  0
 20 21  1  0  0  0
 20 33  1  0  0  0
 21 34  1  0  0  0
M  END
> <QPhAR in domain>
True

> <s_m_source_file>
iis-002-000-000--002-499-999_filtered_optim.maegz

> <PRICERANGE_50MG>
100 - 250

> <r_epik_Charging_Adjusted_Penalty>
0.0

> <PRICERANGE_1MG>
50 - 100

> <Name>
MolPort-005-284-091

> <i_m_Source_File_Index>
64678

> <i_lp_mmshare_version>
36015

> <PUBCHEM_EXT_DATASOURCE_URL>
https://www.molport.com

> <s_lp_Force_Field>
OPLS3

> <r_epik_Ionization_Penalty>
0.00128981

> <r_epik_State_Penalty>
0.0

> <IS_SC>
Yes

> <r_epik_Ionization_Penalty_Neutral>
0.00128981

> <s_m_Source_Path>
/home/mrgulotta/data_server/CADD/LIBRERIE/OTTIMIZZATE/MOLPORT/ALL_STOCK_COMPOUNDS_FILTERED_NEW

> <i_m_source_file_index>
64678

> <PUBCHEM_EXT_SUBSTANCE_URL>
https://www.molport.com/shop/molecule-link/MolPort-005-284-091

> <VERIFIED_AMOUNT_MG>
50

> <r_epik_Ionization_Penalty_Charging>
0.0

> <r_lp_Energy>
40.5152

> <QPhAR prediction>
6.9096769511251

> <i_epik_Tot_abs_Q>
0

> <i_epik_Tot_Q>
0

> <cdk:Title>
null

> <b_lp_Chiralities_Consistent>
1

> <s_m_entry_name>
iis-002-000-000--002-499-999_filtered.64678

> <i_f3d_flags>
0

> <PRICERANGE_5MG>
50 - 100

> <COMPOUND_STATE>
SOLID

> <s_m_entry_id>
104275

> <Molecule_Name>
MolPort-005-284-091

> <Score>
0.9451361566761909

> <BEST_LEAD_TIME>
7

> <s_lp_Variant>
MolPort-005-284-091-1

> <s_m_Source_File>
iis-002-000-000--002-499-999_filtered.sdf

> <r_lp_tautomer_probability>
1.0

> <UNVERIFIED_AMOUNT_MG>
50.0

$$$$
MolPort-046-105-987
XX    ILIB07022204093D

 46 49  0  0  1  0              1 V2000
   -1.7539   -0.3910   -1.1733 O   0  0  0  0  0
   -1.1787    1.0010   -3.6689 O   0  0  0  0  0
    1.9106   -4.7461   -7.2656 N   0  0  0  0  0
   -2.8584   -0.7410    3.2354 N   0  0  0  0  0
    1.4150   -5.7461   -8.0078 N   0  0  0  0  0
   -1.8955    0.1755    3.0596 N   0  0  0  0  0
   -0.4125   -1.0620   -4.1875 N   0  0  0  0  0
   -2.6094   -1.0762   -0.3629 C   0  0  0  0  0
   -1.9941   -0.8115   -2.4424 C   0  0  0  0  0
    0.9600   -4.0332   -6.6035 C   0  0  0  0  0
   -3.2676   -1.3315    2.0801 C   0  0  0  0  0
   -1.6533    0.1505    1.7397 C   0  0  0  0  0
    0.0923   -5.6953   -7.7891 C   0  0  0  0  0
   -2.5127   -0.7693    1.0811 C   0  0  0  0  0
   -3.3955   -1.9258   -1.1128 C   0  0  0  0  0
   -2.9941   -1.7549   -2.4580 C   0  0  0  0  0
   -0.2405   -4.6152   -6.9277 C   0  0  0  0  0
   -1.1909   -0.2107   -3.4512 C   0  0  0  0  0
    3.3398   -4.5352   -7.2676 C   0  0  0  0  0
   -3.3428   -0.9761    4.5762 C   0  0  0  0  0
   -0.4297   -2.4971   -3.9268 C   0  0  0  0  0
    0.4485   -0.5505   -5.2480 C   0  0  0  0  0
    1.3042   -2.8838   -5.7539 C   0  0  0  0  0
    0.9077   -3.1396   -4.2891 C   0  0  0  0  0
    0.6714   -1.6055   -6.3281 C   0  0  0  0  0
   -4.0239   -2.0596    2.1019 H   0  0  0  0  0
   -0.9062    0.7649    1.3313 H   0  0  0  0  0
   -0.5414   -6.4026   -8.2370 H   0  0  0  0  0
   -4.1154   -2.5277   -0.6417 H   0  0  0  0  0
   -3.2991   -2.1817   -3.3676 H   0  0  0  0  0
   -1.1347   -4.2259   -6.5387 H   0  0  0  0  0
    3.7572   -4.9741   -8.1253 H   0  0  0  0  0
    3.5415   -3.5048   -7.2682 H   0  0  0  0  0
    3.7595   -4.9735   -6.4107 H   0  0  0  0  0
   -2.5474   -1.2897    5.1857 H   0  0  0  0  0
   -3.7503   -0.0885    4.9618 H   0  0  0  0  0
   -4.0827   -1.7209    4.5555 H   0  0  0  0  0
   -1.1846   -2.9481   -4.5007 H   0  0  0  0  0
   -0.6172   -2.6654   -2.9075 H   0  0  0  0  0
    0.0004    0.2915   -5.6871 H   0  0  0  0  0
    1.3792   -0.2808   -4.8437 H   0  0  0  0  0
    2.3395   -2.7143   -5.7970 H   0  0  0  0  0
    0.8472   -4.1781   -4.1464 H   0  0  0  0  0
    1.6630   -2.7454   -3.6754 H   0  0  0  0  0
   -0.2493   -1.8601   -6.7640 H   0  0  0  0  0
    1.3134   -1.2217   -7.0650 H   0  0  0  0  0
  1  8  1  0  0  0
  1  9  1  0  0  0
  2 18  2  0  0  0
  3  5  1  0  0  0
  3 10  1  0  0  0
  3 19  1  0  0  0
  4  6  1  0  0  0
  4 11  1  0  0  0
  4 20  1  0  0  0
  5 13  2  0  0  0
  6 12  2  0  0  0
  7 18  1  0  0  0
  7 21  1  0  0  0
  7 22  1  0  0  0
  8 14  1  0  0  0
  8 15  2  0  0  0
  9 16  2  0  0  0
  9 18  1  0  0  0
 10 17  2  0  0  0
 10 23  1  0  0  0
 11 14  2  0  0  0
 11 26  1  0  0  0
 12 14  1  0  0  0
 12 27  1  0  0  0
 13 17  1  0  0  0
 13 28  1  0  0  0
 15 16  1  0  0  0
 15 29  1  0  0  0
 16 30  1  0  0  0
 17 31  1  0  0  0
 19 32  1  0  0  0
 19 33  1  0  0  0
 19 34  1  0  0  0
 20 35  1  0  0  0
 20 36  1  0  0  0
 20 37  1  0  0  0
 21 24  1  0  0  0
 21 38  1  0  0  0
 21 39  1  0  0  0
 22 25  1  0  0  0
 22 40  1  0  0  0
 22 41  1  0  0  0
 23 24  1  0  0  0
 23 25  1  0  0  0
 23 42  1  0  0  0
 24 43  1  0  0  0
 24 44  1  0  0  0
 25 45  1  0  0  0
 25 46  1  0  0  0
M  END
> <QPhAR in domain>
True

> <s_m_source_file>
iis-007-000-000--007-499-999_filtered_optim.maegz

> <r_epik_Charging_Adjusted_Penalty>
0.0

> <PRICERANGE_1MG>
50 - 100

> <Name>
MolPort-046-105-987

> <i_m_Source_File_Index>
65249

> <i_lp_mmshare_version>
36015

> <PUBCHEM_EXT_DATASOURCE_URL>
https://www.molport.com

> <s_lp_Force_Field>
OPLS3

> <r_epik_Ionization_Penalty>
0.00109488

> <r_epik_State_Penalty>
0.0

> <IS_SC>
Yes

> <r_epik_Ionization_Penalty_Neutral>
0.00109488

> <s_m_Source_Path>
/home/mrgulotta/data_server/CADD/LIBRERIE/OTTIMIZZATE/MOLPORT/ALL_STOCK_COMPOUNDS_FILTERED_NEW

> <i_m_source_file_index>
65249

> <PUBCHEM_EXT_SUBSTANCE_URL>
https://www.molport.com/shop/molecule-link/MolPort-046-105-987

> <VERIFIED_AMOUNT_MG>
35

> <r_epik_Ionization_Penalty_Charging>
0.0

> <r_lp_Energy>
24.568

> <QC_METHOD>
LCMS

> <QPhAR prediction>
6.9096769511251

> <i_epik_Tot_abs_Q>
0

> <i_epik_Tot_Q>
0

> <cdk:Title>
null

> <b_lp_Chiralities_Consistent>
1

> <s_m_entry_name>
iis-007-000-000--007-499-999_filtered.65249

> <i_f3d_flags>
0

> <PRICERANGE_5MG>
50 - 100

> <COMPOUND_STATE>
N/A

> <s_m_entry_id>
202928

> <Molecule_Name>
MolPort-046-105-987

> <Score>
0.925477361518911

> <BEST_LEAD_TIME>
10

> <s_lp_Variant>
MolPort-046-105-987-1

> <s_m_Source_File>
iis-007-000-000--007-499-999_filtered.sdf

> <r_lp_tautomer_probability>
1.0

> <UNVERIFIED_AMOUNT_MG>
35.0

$$$$
MolPort-020-195-533
XX    ILIB07022204093D

 37 39  0  0  1  0              1 V2000
   -1.7627   -2.3682    1.6377 S   0  0  0  0  0
    2.3135   -2.7520   -6.6992 F   0  0  0  0  0
    3.3594   -3.1543   -4.8418 F   0  0  0  0  0
    3.2246   -1.1177   -5.5918 F   0  0  0  0  0
   -1.4990    0.1443    4.5840 N   0  0  0  0  0
   -2.4941    0.6743    3.8867 N   0  0  0  0  0
   -1.1392   -0.9502    3.9014 N   0  0  0  0  0
   -2.7676   -0.0752    2.7656 N   0  0  0  0  0
   -2.2656   -0.9182   -1.1982 N   0  0  0  0  0
   -3.4619   -1.6475   -2.9434 N   0  0  0  0  0
   -1.9175   -1.0801    2.7861 C   0  0  0  0  0
   -2.2529   -1.4165   -2.4824 C   0  0  0  0  0
   -3.5918   -0.8320   -0.8386 C   0  0  0  0  0
   -4.2988   -1.2866   -1.9258 C   0  0  0  0  0
   -1.0425   -1.6328   -3.2236 C   0  0  0  0  0
    1.2549   -2.0586   -4.6816 C   0  0  0  0  0
   -1.1406   -2.1250   -4.5312 C   0  0  0  0  0
    0.1830   -1.3320   -2.5986 C   0  0  0  0  0
    0.0213   -2.3506   -5.2676 C   0  0  0  0  0
    1.3311   -1.5640   -3.3711 C   0  0  0  0  0
   -0.5701   -1.7012    0.4583 C   0  0  0  0  0
    2.5137   -2.2695   -5.4414 C   0  0  0  0  0
   -1.1206   -0.5583   -0.3945 C   0  0  0  0  0
   -0.0627   -1.7822    4.3867 C   0  0  0  0  0
   -3.8558   -0.4710    0.1114 H   0  0  0  0  0
   -5.3382   -1.3774   -2.0437 H   0  0  0  0  0
   -2.0837   -2.3209   -4.9490 H   0  0  0  0  0
    0.1942   -0.9599   -1.6168 H   0  0  0  0  0
   -0.0184   -2.7324   -6.2449 H   0  0  0  0  0
    2.2666   -1.3565   -2.9418 H   0  0  0  0  0
    0.2644   -1.3300    0.9764 H   0  0  0  0  0
   -0.2646   -2.4614   -0.1984 H   0  0  0  0  0
   -1.3840    0.2173    0.2625 H   0  0  0  0  0
   -0.3408   -0.2373   -1.0201 H   0  0  0  0  0
    0.2472   -2.4338    3.6239 H   0  0  0  0  0
    0.7437   -1.1763    4.6785 H   0  0  0  0  0
   -0.3965   -2.3413    5.2104 H   0  0  0  0  0
  1 11  1  0  0  0
  1 21  1  0  0  0
  2 22  1  0  0  0
  3 22  1  0  0  0
  4 22  1  0  0  0
  5  6  2  0  0  0
  5  7  1  0  0  0
  6  8  1  0  0  0
  7 11  1  0  0  0
  7 24  1  0  0  0
  8 11  2  0  0  0
  9 12  1  0  0  0
  9 13  1  0  0  0
  9 23  1  0  0  0
 10 12  2  0  0  0
 10 14  1  0  0  0
 12 15  1  0  0  0
 13 14  2  0  0  0
 13 25  1  0  0  0
 14 26  1  0  0  0
 15 17  2  0  0  0
 15 18  1  0  0  0
 16 19  2  0  0  0
 16 20  1  0  0  0
 16 22  1  0  0  0
 17 19  1  0  0  0
 17 27  1  0  0  0
 18 20  2  0  0  0
 18 28  1  0  0  0
 19 29  1  0  0  0
 20 30  1  0  0  0
 21 23  1  0  0  0
 21 31  1  0  0  0
 21 32  1  0  0  0
 23 33  1  0  0  0
 23 34  1  0  0  0
 24 35  1  0  0  0
 24 36  1  0  0  0
 24 37  1  0  0  0
M  END
> <QPhAR in domain>
True

> <s_m_source_file>
iis-005-000-000--005-499-999_filtered_optim.maegz

> <r_epik_Charging_Adjusted_Penalty>
0.607353

> <PRICERANGE_1MG>
< 50

> <Name>
MolPort-020-195-533

> <i_m_Source_File_Index>
4202

> <i_lp_mmshare_version>
36015

> <PUBCHEM_EXT_DATASOURCE_URL>
https://www.molport.com

> <s_lp_Force_Field>
OPLS3

> <r_epik_Ionization_Penalty>
0.30677

> <r_epik_State_Penalty>
0.300583

> <IS_SC>
Yes

> <r_epik_Ionization_Penalty_Neutral>
2.3009E-11

> <s_m_Source_Path>
/home/mrgulotta/data_server/CADD/LIBRERIE/OTTIMIZZATE/MOLPORT/ALL_STOCK_COMPOUNDS_FILTERED_NEW

> <i_m_source_file_index>
4202

> <PUBCHEM_EXT_SUBSTANCE_URL>
https://www.molport.com/shop/molecule-link/MolPort-020-195-533

> <VERIFIED_AMOUNT_MG>
1

> <r_epik_Ionization_Penalty_Charging>
0.30677

> <r_lp_Energy>
20.6616

> <QC_METHOD>
LCMS

> <QPhAR prediction>
6.9096769511251

> <i_epik_Tot_abs_Q>
0

> <i_epik_Tot_Q>
0

> <cdk:Title>
null

> <b_lp_Chiralities_Consistent>
1

> <s_m_entry_name>
iis-005-000-000--005-499-999_filtered.4202

> <i_f3d_flags>
0

> <COMPOUND_STATE>
FILM

> <s_m_entry_id>
4202

> <Score>
0.9297752400855414

> <Molecule_Name>
MolPort-020-195-533

> <BEST_LEAD_TIME>
12

> <s_lp_Variant>
MolPort-020-195-533-1

> <s_m_Source_File>
iis-005-000-000--005-499-999_filtered.sdf

> <r_lp_tautomer_probability>
1.0

> <UNVERIFIED_AMOUNT_MG>
1

$$$$
MolPort-039-341-794
XX    ILIB07022204093D

 58 63  0  0  1  0              1 V2000
   -1.1118    1.0405    3.3896 S   0  0  0  0  0
   -1.5581   -0.9270   -4.6699 O   0  0  0  0  0
   -0.2972    2.7158    9.7734 N   0  0  0  0  0
    1.0010    2.9941    9.9570 N   0  0  0  0  0
   -2.8672   -0.8157    3.4619 N   0  0  0  0  0
   -2.6719   -0.4373    4.7773 N   0  0  0  0  0
   -3.0234   -1.2295    0.6567 N   0  0  0  0  0
   -2.1191   -0.1317    2.6152 C   0  0  0  0  0
   -1.7817    0.5203    4.8652 C   0  0  0  0  0
   -1.9731   -1.0464   -3.3643 C   0  0  0  0  0
   -0.5381   -1.7563   -5.0762 C   0  0  0  0  0
   -2.8193   -1.2939   -0.7122 C   0  0  0  0  0
   -2.1387   -0.3346    1.2183 C   0  0  0  0  0
   -1.0786    3.0156   10.8438 C   0  0  0  0  0
    1.0518    3.5244   11.1875 C   0  0  0  0  0
   -0.6841    2.1611    8.5586 C   0  0  0  0  0
   -1.8164   -0.3722   -1.0225 C   0  0  0  0  0
   -1.3970    1.0933    6.1250 C   0  0  0  0  0
   -1.3887   -0.2554   -2.3643 C   0  0  0  0  0
   -2.9922   -1.9365   -3.0273 C   0  0  0  0  0
   -0.8701   -3.0078   -5.6113 C   0  0  0  0  0
    0.7864   -1.2998   -4.9355 C   0  0  0  0  0
   -3.4268   -2.0791   -1.7056 C   0  0  0  0  0
   -1.4375    0.2767    0.1934 C   0  0  0  0  0
   -0.2339    3.5352   11.7930 C   0  0  0  0  0
   -1.6475    1.1504    8.5234 C   0  0  0  0  0
   -0.0911    2.6338    7.3809 C   0  0  0  0  0
   -1.9995    0.6042    7.2910 C   0  0  0  0  0
   -0.4265    2.1133    6.1230 C   0  0  0  0  0
    0.1469   -3.8691   -6.0234 C   0  0  0  0  0
    1.7832   -2.1885   -5.3672 C   0  0  0  0  0
    1.4727   -3.4463   -5.9043 C   0  0  0  0  0
   -3.9688   -2.0381    1.3926 C   0  0  0  0  0
   -2.5283    2.7637   10.8398 C   0  0  0  0  0
    2.3398    3.9697   11.7383 C   0  0  0  0  0
   -0.6300    0.4272   -2.6112 H   0  0  0  0  0
   -3.4501   -2.5169   -3.7729 H   0  0  0  0  0
   -1.8775   -3.2906   -5.6994 H   0  0  0  0  0
    0.9740   -0.3499   -4.5294 H   0  0  0  0  0
   -4.1889   -2.7540   -1.4483 H   0  0  0  0  0
   -0.7770    1.0647    0.4063 H   0  0  0  0  0
   -0.6124    3.8334   12.7259 H   0  0  0  0  0
   -2.0911    0.8167    9.4147 H   0  0  0  0  0
    0.6265    3.3991    7.4249 H   0  0  0  0  0
   -2.7094   -0.1672    7.2313 H   0  0  0  0  0
   -0.0052    2.4353    5.2168 H   0  0  0  0  0
   -0.0916   -4.8142   -6.4138 H   0  0  0  0  0
    2.7952   -1.9187   -5.2926 H   0  0  0  0  0
    2.2540   -4.0732   -6.2191 H   0  0  0  0  0
   -4.8976   -2.0233    0.9031 H   0  0  0  0  0
   -3.6171   -3.0260    1.4463 H   0  0  0  0  0
   -4.0784   -1.6524    2.3630 H   0  0  0  0  0
   -2.7038    1.7289   10.8708 H   0  0  0  0  0
   -2.9648    3.2181   11.6797 H   0  0  0  0  0
   -2.9507    3.1643    9.9660 H   0  0  0  0  0
    3.1117    3.7141   11.0740 H   0  0  0  0  0
    2.3225    5.0112   11.8707 H   0  0  0  0  0
    2.5052    3.5019   12.6637 H   0  0  0  0  0
  1  8  1  0  0  0
  1  9  1  0  0  0
  2 10  1  0  0  0
  2 11  1  0  0  0
  3  4  1  0  0  0
  3 14  1  0  0  0
  3 16  1  0  0  0
  4 15  2  0  0  0
  5  6  1  0  0  0
  5  8  2  0  0  0
  6  9  2  0  0  0
  7 12  1  0  0  0
  7 13  1  0  0  0
  7 33  1  0  0  0
  8 13  1  0  0  0
  9 18  1  0  0  0
 10 19  2  0  0  0
 10 20  1  0  0  0
 11 21  2  0  0  0
 11 22  1  0  0  0
 12 17  2  0  0  0
 12 23  1  0  0  0
 13 24  2  0  0  0
 14 25  2  0  0  0
 14 34  1  0  0  0
 15 25  1  0  0  0
 15 35  1  0  0  0
 16 26  2  0  0  0
 16 27  1  0  0  0
 17 19  1  0  0  0
 17 24  1  0  0  0
 18 28  2  0  0  0
 18 29  1  0  0  0
 19 36  1  0  0  0
 20 23  2  0  0  0
 20 37  1  0  0  0
 21 30  1  0  0  0
 21 38  1  0  0  0
 22 31  2  0  0  0
 22 39  1  0  0  0
 23 40  1  0  0  0
 24 41  1  0  0  0
 25 42  1  0  0  0
 26 28  1  0  0  0
 26 43  1  0  0  0
 27 29  2  0  0  0
 27 44  1  0  0  0
 28 45  1  0  0  0
 29 46  1  0  0  0
 30 32  2  0  0  0
 30 47  1  0  0  0
 31 32  1  0  0  0
 31 48  1  0  0  0
 32 49  1  0  0  0
 33 50  1  0  0  0
 33 51  1  0  0  0
 33 52  1  0  0  0
 34 53  1  0  0  0
 34 54  1  0  0  0
 34 55  1  0  0  0
 35 56  1  0  0  0
 35 57  1  0  0  0
 35 58  1  0  0  0
M  END
> <QPhAR in domain>
True

> <s_m_source_file>
iis-006-000-000--006-499-999_filtered_optim.maegz

> <PRICERANGE_50MG>
100 - 250

> <r_epik_Charging_Adjusted_Penalty>
0.0

> <PRICERANGE_1MG>
< 50

> <Name>
MolPort-039-341-794

> <i_m_Source_File_Index>
119992

> <i_lp_mmshare_version>
36015

> <PUBCHEM_EXT_DATASOURCE_URL>
https://www.molport.com

> <s_lp_Force_Field>
OPLS3

> <r_epik_Ionization_Penalty>
1.2763E-4

> <r_epik_State_Penalty>
0.0

> <IS_SC>
Yes

> <r_epik_Ionization_Penalty_Neutral>
1.2763E-4

> <s_m_Source_Path>
/home/mrgulotta/data_server/CADD/LIBRERIE/OTTIMIZZATE/MOLPORT/ALL_STOCK_COMPOUNDS_FILTERED_NEW

> <i_m_source_file_index>
119992

> <PUBCHEM_EXT_SUBSTANCE_URL>
https://www.molport.com/shop/molecule-link/MolPort-039-341-794

> <VERIFIED_AMOUNT_MG>
100

> <r_epik_Ionization_Penalty_Charging>
0.0

> <r_lp_Energy>
51.2097

> <QC_METHOD>
NMR

> <QPhAR prediction>
6.9096769511251

> <i_epik_Tot_abs_Q>
0

> <i_epik_Tot_Q>
0

> <cdk:Title>
null

> <b_lp_Chiralities_Consistent>
1

> <s_m_entry_name>
iis-006-000-000--006-499-999_filtered.119992

> <i_f3d_flags>
0

> <PRICERANGE_5MG>
< 50

> <COMPOUND_STATE>
N/A

> <s_m_entry_id>
399004

> <Molecule_Name>
MolPort-039-341-794

> <Score>
0.9180502182457152

> <BEST_LEAD_TIME>
10

> <s_lp_Variant>
MolPort-039-341-794-1

> <s_m_Source_File>
iis-006-000-000--006-499-999_filtered.sdf

> <r_lp_tautomer_probability>
1.0

> <UNVERIFIED_AMOUNT_MG>
100

$$$$
MolPort-044-540-563
XX    ILIB07022204093D

 41 44  0  0  1  0              1 V2000
   -3.0654   -0.6396   -0.5088 N   0  0  0  0  0
   -2.6094    0.2792   -2.4980 N   0  0  0  0  0
   -0.5408   -4.9277    0.7043 N   0  0  0  0  0
   -3.3184    0.3833   -1.3960 C   0  0  0  0  0
   -2.1260   -1.4424   -1.1143 C   0  0  0  0  0
   -1.8647   -0.8545   -2.3291 C   0  0  0  0  0
    0.2441   -3.8799    0.3683 C   0  0  0  0  0
   -1.8687   -4.8262    0.4529 C   0  0  0  0  0
   -1.5840   -2.6182   -0.4933 C   0  0  0  0  0
   -0.9485   -1.3022   -3.3340 C   0  0  0  0  0
   -2.8857   -0.1568    1.8608 C   0  0  0  0  0
   -0.2208   -2.7197   -0.2234 C   0  0  0  0  0
   -2.4131   -3.6953   -0.1573 C   0  0  0  0  0
   -1.1431   -2.5713   -3.8955 C   0  0  0  0  0
    0.0980   -0.4401   -3.7129 C   0  0  0  0  0
   -3.2041    1.1694    2.1826 C   0  0  0  0  0
   -1.8696   -0.8882    2.5039 C   0  0  0  0  0
   -0.2596   -3.0322   -4.8691 C   0  0  0  0  0
    0.9631   -0.9331   -4.7012 C   0  0  0  0  0
   -2.4805    1.8252    3.1777 C   0  0  0  0  0
   -1.1675   -0.2001    3.5059 C   0  0  0  0  0
    0.7878   -2.2012   -5.2734 C   0  0  0  0  0
   -1.4678    1.1284    3.8408 C   0  0  0  0  0
   -3.6660   -0.8308    0.7910 C   0  0  0  0  0
   -4.0146    1.1303   -1.1514 H   0  0  0  0  0
    1.2768   -3.9165    0.5546 H   0  0  0  0  0
   -2.5147   -5.6101    0.7186 H   0  0  0  0  0
    0.4483   -1.9449   -0.4570 H   0  0  0  0  0
   -3.4419   -3.6538   -0.3632 H   0  0  0  0  0
   -1.9495   -3.1662   -3.5818 H   0  0  0  0  0
    0.1908    0.5032   -3.2611 H   0  0  0  0  0
   -3.9816    1.6604    1.6758 H   0  0  0  0  0
   -1.6801   -1.8821    2.2232 H   0  0  0  0  0
   -0.3880   -3.9880   -5.2844 H   0  0  0  0  0
    1.7695   -0.3479   -5.0325 H   0  0  0  0  0
   -2.7013    2.8238    3.4157 H   0  0  0  0  0
   -0.3932   -0.6798    4.0282 H   0  0  0  0  0
    1.4572   -2.5234   -6.0154 H   0  0  0  0  0
   -0.9187    1.5987    4.6022 H   0  0  0  0  0
   -4.6376   -0.4326    0.7896 H   0  0  0  0  0
   -3.7086   -1.8570    1.0094 H   0  0  0  0  0
  1  4  1  0  0  0
  1  5  1  0  0  0
  1 24  1  0  0  0
  2  4  2  0  0  0
  2  6  1  0  0  0
  3  7  2  0  0  0
  3  8  1  0  0  0
  4 25  1  0  0  0
  5  6  2  0  0  0
  5  9  1  0  0  0
  6 10  1  0  0  0
  7 12  1  0  0  0
  7 26  1  0  0  0
  8 13  2  0  0  0
  8 27  1  0  0  0
  9 12  2  0  0  0
  9 13  1  0  0  0
 10 14  2  0  0  0
 10 15  1  0  0  0
 11 16  2  0  0  0
 11 17  1  0  0  0
 11 24  1  0  0  0
 12 28  1  0  0  0
 13 29  1  0  0  0
 14 18  1  0  0  0
 14 30  1  0  0  0
 15 19  2  0  0  0
 15 31  1  0  0  0
 16 20  1  0  0  0
 16 32  1  0  0  0
 17 21  2  0  0  0
 17 33  1  0  0  0
 18 22  2  0  0  0
 18 34  1  0  0  0
 19 22  1  0  0  0
 19 35  1  0  0  0
 20 23  2  0  0  0
 20 36  1  0  0  0
 21 23  1  0  0  0
 21 37  1  0  0  0
 22 38  1  0  0  0
 23 39  1  0  0  0
 24 40  1  0  0  0
 24 41  1  0  0  0
M  END
> <QPhAR in domain>
True

> <s_m_source_file>
iis-006-500-000--006-999-999_filtered_optim.maegz

> <r_epik_Charging_Adjusted_Penalty>
0.0386503

> <PRICERANGE_1MG>
50 - 100

> <Name>
MolPort-044-540-563

> <i_m_Source_File_Index>
89033

> <i_lp_mmshare_version>
36015

> <PUBCHEM_EXT_DATASOURCE_URL>
https://www.molport.com

> <s_lp_Force_Field>
OPLS3

> <r_epik_Ionization_Penalty>
0.0233018

> <r_epik_State_Penalty>
0.0172277

> <IS_SC>
Yes

> <r_epik_Ionization_Penalty_Neutral>
0.00187927

> <s_m_Source_Path>
/home/mrgulotta/data_server/CADD/LIBRERIE/OTTIMIZZATE/MOLPORT/ALL_STOCK_COMPOUNDS_FILTERED_NEW

> <i_m_source_file_index>
89033

> <PUBCHEM_EXT_SUBSTANCE_URL>
https://www.molport.com/shop/molecule-link/MolPort-044-540-563

> <VERIFIED_AMOUNT_MG>
10

> <r_epik_Ionization_Penalty_Charging>
0.0214225

> <r_lp_Energy>
33.0769

> <QC_METHOD>
LCMS

> <QPhAR prediction>
6.9096769511251

> <i_epik_Tot_abs_Q>
0

> <i_epik_Tot_Q>
0

> <cdk:Title>
null

> <b_lp_Chiralities_Consistent>
1

> <s_m_entry_name>
iis-006-500-000--006-999-999_filtered.89033

> <i_f3d_flags>
0

> <PRICERANGE_5MG>
50 - 100

> <COMPOUND_STATE>
N/A

> <s_m_entry_id>
89033

> <Molecule_Name>
MolPort-044-540-563

> <Score>
0.9205011329182389

> <BEST_LEAD_TIME>
10

> <s_lp_Variant>
MolPort-044-540-563-1

> <s_m_Source_File>
iis-006-500-000--006-999-999_filtered.sdf

> <r_lp_tautomer_probability>
1.0

> <UNVERIFIED_AMOUNT_MG>
10.0

$$$$
MolPort-016-622-324
XX    ILIB07022204093D

 43 47  0  0  1  0              1 V2000
   -2.3916   -3.9121    0.0515 S   0  0  0  0  0
   -2.1035    1.4653    3.2012 O   0  0  0  0  0
   -3.0596    1.1733    2.2305 N   0  0  0  0  0
   -3.0000   -0.6348   -0.4535 N   0  0  0  0  0
    0.1240   -3.9922    0.4852 N   0  0  0  0  0
   -1.7280   -0.6477    2.5732 N   0  0  0  0  0
   -2.6201    0.2449   -2.4766 N   0  0  0  0  0
   -0.9788   -4.6895    0.6797 C   0  0  0  0  0
   -1.4717   -2.5508   -0.4370 C   0  0  0  0  0
   -1.3501    0.3385    3.3516 C   0  0  0  0  0
   -2.7832   -0.0944    1.8862 C   0  0  0  0  0
   -3.3037    0.3575   -1.3589 C   0  0  0  0  0
   -2.0527   -1.4263   -1.0625 C   0  0  0  0  0
   -1.8389   -0.8628   -2.2979 C   0  0  0  0  0
   -0.1460   -2.7832   -0.1230 C   0  0  0  0  0
   -0.9358   -1.3105   -3.3145 C   0  0  0  0  0
   -1.1079   -2.5986   -3.8389 C   0  0  0  0  0
    0.0756   -0.4291   -3.7422 C   0  0  0  0  0
   -0.2363   -3.0596   -4.8242 C   0  0  0  0  0
    0.9294   -0.9231   -4.7383 C   0  0  0  0  0
    0.7764   -2.2100   -5.2754 C   0  0  0  0  0
   -3.5615   -0.8091    0.8660 C   0  0  0  0  0
   -0.2054    0.3871    4.3789 C   0  0  0  0  0
   -1.0054   -6.0078    1.3311 C   0  0  0  0  0
    1.0767   -0.3573    4.1230 C   0  0  0  0  0
    0.1327   -0.8376    5.1855 C   0  0  0  0  0
   -4.0141    1.0912   -1.1150 H   0  0  0  0  0
    0.6341   -2.1081   -0.3186 H   0  0  0  0  0
   -1.8884   -3.2078   -3.4893 H   0  0  0  0  0
    0.1519    0.5282   -3.3175 H   0  0  0  0  0
   -0.3483   -4.0287   -5.2125 H   0  0  0  0  0
    1.7111   -0.3249   -5.1038 H   0  0  0  0  0
    1.4359   -2.5318   -6.0264 H   0  0  0  0  0
   -4.5439   -0.4386    0.8801 H   0  0  0  0  0
   -3.5690   -1.8301    1.1111 H   0  0  0  0  0
    0.1043    1.3816    4.5110 H   0  0  0  0  0
   -0.2190   -6.0718    2.0239 H   0  0  0  0  0
   -0.8949   -6.7589    0.6058 H   0  0  0  0  0
   -1.9214   -6.1339    1.8287 H   0  0  0  0  0
    1.0914   -0.6979    3.1299 H   0  0  0  0  0
    1.8921    0.2840    4.2852 H   0  0  0  0  0
    0.1884   -0.5825    6.2025 H   0  0  0  0  0
   -0.6123   -1.5644    5.0472 H   0  0  0  0  0
  1  8  1  0  0  0
  1  9  1  0  0  0
  2  3  1  0  0  0
  2 10  1  0  0  0
  3 11  2  0  0  0
  4 12  1  0  0  0
  4 13  1  0  0  0
  4 22  1  0  0  0
  5  8  2  0  0  0
  5 15  1  0  0  0
  6 10  2  0  0  0
  6 11  1  0  0  0
  7 12  2  0  0  0
  7 14  1  0  0  0
  8 24  1  0  0  0
  9 13  1  0  0  0
  9 15  2  0  0  0
 10 23  1  0  0  0
 11 22  1  0  0  0
 12 27  1  0  0  0
 13 14  2  0  0  0
 14 16  1  0  0  0
 15 28  1  0  0  0
 16 17  2  0  0  0
 16 18  1  0  0  0
 17 19  1  0  0  0
 17 29  1  0  0  0
 18 20  2  0  0  0
 18 30  1  0  0  0
 19 21  2  0  0  0
 19 31  1  0  0  0
 20 21  1  0  0  0
 20 32  1  0  0  0
 21 33  1  0  0  0
 22 34  1  0  0  0
 22 35  1  0  0  0
 23 25  1  0  0  0
 23 26  1  0  0  0
 23 36  1  0  0  0
 24 37  1  0  0  0
 24 38  1  0  0  0
 24 39  1  0  0  0
 25 26  1  0  0  0
 25 40  1  0  0  0
 25 41  1  0  0  0
 26 42  1  0  0  0
 26 43  1  0  0  0
M  END
> <QPhAR in domain>
True

> <s_m_source_file>
iis-004-500-000--004-999-999_filtered_optim.maegz

> <r_epik_Charging_Adjusted_Penalty>
0.0010449

> <PRICERANGE_1MG>
< 50

> <Name>
MolPort-016-622-324

> <i_m_Source_File_Index>
30216

> <i_lp_mmshare_version>
36015

> <PUBCHEM_EXT_DATASOURCE_URL>
https://www.molport.com

> <s_lp_Force_Field>
OPLS3

> <r_epik_Ionization_Penalty>
0.00106702

> <r_epik_State_Penalty>
0.0

> <IS_SC>
Yes

> <r_epik_Ionization_Penalty_Neutral>
2.21243E-5

> <s_m_Source_Path>
/home/mrgulotta/data_server/CADD/LIBRERIE/OTTIMIZZATE/MOLPORT/ALL_STOCK_COMPOUNDS_FILTERED_NEW

> <i_m_source_file_index>
30216

> <PUBCHEM_EXT_SUBSTANCE_URL>
https://www.molport.com/shop/molecule-link/MolPort-016-622-324

> <VERIFIED_AMOUNT_MG>
1

> <r_epik_Ionization_Penalty_Charging>
0.0010449

> <r_lp_Energy>
27.9084

> <QC_METHOD>
LCMS

> <QPhAR prediction>
6.9096769511251

> <i_epik_Tot_abs_Q>
0

> <i_epik_Tot_Q>
0

> <cdk:Title>
null

> <b_lp_Chiralities_Consistent>
1

> <s_m_entry_name>
iis-004-500-000--004-999-999_filtered.30216

> <i_f3d_flags>
0

> <COMPOUND_STATE>
FILM

> <s_m_entry_id>
165802

> <Score>
0.9216111497730989

> <Molecule_Name>
MolPort-016-622-324

> <BEST_LEAD_TIME>
12

> <s_lp_Variant>
MolPort-016-622-324-1

> <s_m_Source_File>
iis-004-500-000--004-999-999_filtered.sdf

> <r_lp_tautomer_probability>
1.0

> <UNVERIFIED_AMOUNT_MG>
1.0

$$$$
MolPort-035-765-985
XX    ILIB07022204093D

 46 49  0  0  1  0              1 V2000
    0.8860   -1.5991   -4.8281 N   0  0  0  0  0
   -0.6299    1.0186    2.9912 N   0  0  0  0  0
   -0.0951   -0.7861   -5.2441 N   0  0  0  0  0
   -1.1274    0.4441    4.0957 N   0  0  0  0  0
   -2.3359   -1.6631   -0.0381 N   0  0  0  0  0
   -0.2269   -1.9990   -0.7083 N   0  0  0  0  0
   -7.7344    0.5420   -4.9336 N   0  0  0  0  0
   -1.0547   -2.0273    0.3127 C   0  0  0  0  0
   -2.2949   -1.3848   -1.3853 C   0  0  0  0  0
   -0.9927   -1.6011   -1.7681 C   0  0  0  0  0
    0.7371   -2.0225   -3.5449 C   0  0  0  0  0
   -1.4297    0.8887    1.8994 C   0  0  0  0  0
   -0.9272   -0.7085   -4.1953 C   0  0  0  0  0
   -2.3125   -0.0490    3.7051 C   0  0  0  0  0
   -0.4290   -1.4546   -3.0938 C   0  0  0  0  0
   -3.4502   -0.9822   -2.1367 C   0  0  0  0  0
   -2.5322    0.1891    2.3213 C   0  0  0  0  0
   -5.6680   -0.1711   -3.5547 C   0  0  0  0  0
   -4.0996    0.2054   -1.7749 C   0  0  0  0  0
   -3.8672   -1.7993   -3.2051 C   0  0  0  0  0
   -5.2285    0.6128   -2.4844 C   0  0  0  0  0
   -5.0020   -1.3550   -3.9014 C   0  0  0  0  0
   -3.4863   -1.5879    0.8320 C   0  0  0  0  0
    1.9561   -1.9082   -5.7480 C   0  0  0  0  0
    0.6562    1.6709    3.0801 C   0  0  0  0  0
   -6.8066    0.2225   -4.3125 C   0  0  0  0  0
   -3.6719   -0.2162    1.4878 C   0  0  0  0  0
   -0.8361   -2.2867    1.3064 H   0  0  0  0  0
    1.4541   -2.6578   -3.1151 H   0  0  0  0  0
   -1.1314    1.2959    0.9787 H   0  0  0  0  0
   -1.8112   -0.1464   -4.2669 H   0  0  0  0  0
   -2.9340   -0.5334    4.3990 H   0  0  0  0  0
   -3.7354    0.7804   -0.9754 H   0  0  0  0  0
   -3.3364   -2.6759   -3.4338 H   0  0  0  0  0
   -5.7463    1.4897   -2.2285 H   0  0  0  0  0
   -5.3497   -1.9376   -4.7028 H   0  0  0  0  0
   -3.3882   -2.2931    1.6037 H   0  0  0  0  0
   -4.3562   -1.7915    0.2804 H   0  0  0  0  0
    2.7155   -2.4260   -5.2403 H   0  0  0  0  0
    2.3449   -1.0172   -6.1447 H   0  0  0  0  0
    1.5857   -2.5061   -6.5276 H   0  0  0  0  0
    0.5202    2.7119    3.0977 H   0  0  0  0  0
    1.1429    1.3666    3.9593 H   0  0  0  0  0
    1.2401    1.4082    2.2479 H   0  0  0  0  0
   -4.5385   -0.2633    2.0788 H   0  0  0  0  0
   -3.8103    0.4854    0.7190 H   0  0  0  0  0
  1  3  1  0  0  0
  1 11  1  0  0  0
  1 24  1  0  0  0
  2  4  1  0  0  0
  2 12  1  0  0  0
  2 25  1  0  0  0
  3 13  2  0  0  0
  4 14  2  0  0  0
  5  8  1  0  0  0
  5  9  1  0  0  0
  5 23  1  0  0  0
  6  8  2  0  0  0
  6 10  1  0  0  0
  7 26  3  0  0  0
  8 28  1  0  0  0
  9 10  2  0  0  0
  9 16  1  0  0  0
 10 15  1  0  0  0
 11 15  2  0  0  0
 11 29  1  0  0  0
 12 17  2  0  0  0
 12 30  1  0  0  0
 13 15  1  0  0  0
 13 31  1  0  0  0
 14 17  1  0  0  0
 14 32  1  0  0  0
 16 19  2  0  0  0
 16 20  1  0  0  0
 17 27  1  0  0  0
 18 21  2  0  0  0
 18 22  1  0  0  0
 18 26  1  0  0  0
 19 21  1  0  0  0
 19 33  1  0  0  0
 20 22  2  0  0  0
 20 34  1  0  0  0
 21 35  1  0  0  0
 22 36  1  0  0  0
 23 27  1  0  0  0
 23 37  1  0  0  0
 23 38  1  0  0  0
 24 39  1  0  0  0
 24 40  1  0  0  0
 24 41  1  0  0  0
 25 42  1  0  0  0
 25 43  1  0  0  0
 25 44  1  0  0  0
 27 45  1  0  0  0
 27 46  1  0  0  0
M  END
> <QPhAR in domain>
True

> <s_m_source_file>
iis-005-500-000--005-999-999_filtered_optim.maegz

> <PRICERANGE_50MG>
500 - 1000

> <r_epik_Charging_Adjusted_Penalty>
0.0750169

> <PRICERANGE_1MG>
50 - 100

> <Name>
MolPort-035-765-985

> <i_m_Source_File_Index>
130436

> <i_lp_mmshare_version>
36015

> <PUBCHEM_EXT_DATASOURCE_URL>
https://www.molport.com

> <s_lp_Force_Field>
OPLS3

> <r_epik_Ionization_Penalty>
0.0408004

> <r_epik_State_Penalty>
0.0342942

> <IS_SC>
Yes

> <r_epik_Ionization_Penalty_Neutral>
7.76932E-5

> <s_m_Source_Path>
/home/mrgulotta/data_server/CADD/LIBRERIE/OTTIMIZZATE/MOLPORT/ALL_STOCK_COMPOUNDS_FILTERED_NEW

> <i_m_source_file_index>
130436

> <PUBCHEM_EXT_SUBSTANCE_URL>
https://www.molport.com/shop/molecule-link/MolPort-035-765-985

> <r_epik_Ionization_Penalty_Charging>
0.0407227

> <r_lp_Energy>
16.0386

> <QPhAR prediction>
6.9096769511251

> <i_epik_Tot_abs_Q>
0

> <i_epik_Tot_Q>
0

> <cdk:Title>
null

> <b_lp_Chiralities_Consistent>
1

> <s_m_entry_name>
iis-005-500-000--005-999-999_filtered.130436

> <i_f3d_flags>
0

> <PRICERANGE_5MG>
100 - 250

> <COMPOUND_STATE>
N/A

> <s_m_entry_id>
275860

> <Score>
0.9190193202811759

> <Molecule_Name>
MolPort-035-765-985

> <BEST_LEAD_TIME>
5

> <s_lp_Variant>
MolPort-035-765-985-1

> <s_m_Source_File>
iis-005-500-000--005-999-999_filtered.sdf

> <r_lp_tautomer_probability>
1.0

> <UNVERIFIED_AMOUNT_MG>
50

$$$$
MolPort-004-667-528
XX    ILIB07022204093D

 42 45  0  0  1  0              1 V2000
   -0.8037   -0.5212   -1.5610 S   0  0  0  0  0
   -1.4331   -1.5273    6.3066 F   0  0  0  0  0
    0.1667   -2.6846    5.4102 F   0  0  0  0  0
   -1.9053   -3.1836    4.9805 F   0  0  0  0  0
   -1.4678    0.0892   -5.1582 O   0  0  0  0  0
   -2.5205   -0.7395    0.6746 N   0  0  0  0  0
   -3.8545   -0.9851    0.8284 N   0  0  0  0  0
   -0.1414   -1.6230   -4.5098 N   0  0  0  0  0
   -2.1553   -0.7310   -0.6252 C   0  0  0  0  0
   -1.7627   -0.7715   -3.0078 C   0  0  0  0  0
   -4.3164   -1.1279   -0.4343 C   0  0  0  0  0
   -1.7466   -0.5413    1.8091 C   0  0  0  0  0
   -3.2646   -0.9724   -1.3271 C   0  0  0  0  0
   -1.0439   -1.2236    3.9775 C   0  0  0  0  0
   -3.1064   -1.0098   -2.7070 C   0  0  0  0  0
   -1.8496   -1.4766    2.8564 C   0  0  0  0  0
   -0.9097    0.5815    1.8569 C   0  0  0  0  0
   -0.1971   -0.1076    4.0430 C   0  0  0  0  0
   -0.1172    0.7976    2.9834 C   0  0  0  0  0
   -1.0527   -2.1367    5.1484 C   0  0  0  0  0
   -1.1426   -0.7168   -4.2871 C   0  0  0  0  0
    0.5762   -1.6738   -5.7754 C   0  0  0  0  0
    0.3700   -2.6309   -3.5840 C   0  0  0  0  0
   -5.7402   -1.4062   -0.6575 C   0  0  0  0  0
    1.8145   -2.5029   -5.4766 C   0  0  0  0  0
    1.3174   -3.4795   -4.4219 C   0  0  0  0  0
   -3.7959   -1.1773   -3.4809 H   0  0  0  0  0
   -2.4988   -2.2968    2.7658 H   0  0  0  0  0
   -0.8832    1.2514    1.0488 H   0  0  0  0  0
    0.3892    0.0571    4.8984 H   0  0  0  0  0
    0.5236    1.6284    3.0230 H   0  0  0  0  0
   -0.0308   -2.1245   -6.5041 H   0  0  0  0  0
    0.8211   -0.6987   -6.0782 H   0  0  0  0  0
   -0.4296   -3.1968   -3.2060 H   0  0  0  0  0
    0.8689   -2.1567   -2.7910 H   0  0  0  0  0
   -6.1615   -0.6354   -1.2328 H   0  0  0  0  0
   -5.8428   -2.3189   -1.1664 H   0  0  0  0  0
   -6.2348   -1.4633    0.2670 H   0  0  0  0  0
    2.1351   -2.9820   -6.3542 H   0  0  0  0  0
    2.5781   -1.8759   -5.1212 H   0  0  0  0  0
    0.7897   -4.2866   -4.8374 H   0  0  0  0  0
    2.0919   -3.8437   -3.8136 H   0  0  0  0  0
  1  9  1  0  0  0
  1 10  1  0  0  0
  2 20  1  0  0  0
  3 20  1  0  0  0
  4 20  1  0  0  0
  5 21  2  0  0  0
  6  7  1  0  0  0
  6  9  1  0  0  0
  6 12  1  0  0  0
  7 11  2  0  0  0
  8 21  1  0  0  0
  8 22  1  0  0  0
  8 23  1  0  0  0
  9 13  2  0  0  0
 10 15  2  0  0  0
 10 21  1  0  0  0
 11 13  1  0  0  0
 11 24  1  0  0  0
 12 16  1  0  0  0
 12 17  2  0  0  0
 13 15  1  0  0  0
 14 16  2  0  0  0
 14 18  1  0  0  0
 14 20  1  0  0  0
 15 27  1  0  0  0
 16 28  1  0  0  0
 17 19  1  0  0  0
 17 29  1  0  0  0
 18 19  2  0  0  0
 18 30  1  0  0  0
 19 31  1  0  0  0
 22 25  1  0  0  0
 22 32  1  0  0  0
 22 33  1  0  0  0
 23 26  1  0  0  0
 23 34  1  0  0  0
 23 35  1  0  0  0
 24 36  1  0  0  0
 24 37  1  0  0  0
 24 38  1  0  0  0
 25 26  1  0  0  0
 25 39  1  0  0  0
 25 40  1  0  0  0
 26 41  1  0  0  0
 26 42  1  0  0  0
M  END
> <QPhAR in domain>
True

> <s_m_source_file>
iis-002-000-000--002-499-999_filtered_optim.maegz

> <PRICERANGE_50MG>
100 - 250

> <r_epik_Charging_Adjusted_Penalty>
0.0

> <PRICERANGE_1MG>
50 - 100

> <Name>
MolPort-004-667-528

> <i_m_Source_File_Index>
16184

> <i_lp_mmshare_version>
36015

> <PUBCHEM_EXT_DATASOURCE_URL>
https://www.molport.com

> <s_lp_Force_Field>
OPLS3

> <r_epik_Ionization_Penalty>
1.14531E-5

> <r_epik_State_Penalty>
0.0

> <IS_SC>
Yes

> <r_epik_Ionization_Penalty_Neutral>
1.14531E-5

> <s_m_Source_Path>
/home/mrgulotta/data_server/CADD/LIBRERIE/OTTIMIZZATE/MOLPORT/ALL_STOCK_COMPOUNDS_FILTERED_NEW

> <i_m_source_file_index>
16184

> <PUBCHEM_EXT_SUBSTANCE_URL>
https://www.molport.com/shop/molecule-link/MolPort-004-667-528

> <VERIFIED_AMOUNT_MG>
300

> <r_epik_Ionization_Penalty_Charging>
0.0

> <r_lp_Energy>
33.9806

> <QC_METHOD>
LCMS

> <QPhAR prediction>
6.9096769511251

> <i_epik_Tot_abs_Q>
0

> <i_epik_Tot_Q>
0

> <cdk:Title>
null

> <b_lp_Chiralities_Consistent>
1

> <s_m_entry_name>
iis-002-000-000--002-499-999_filtered.16184

> <i_f3d_flags>
0

> <PRICERANGE_5MG>
50 - 100

> <COMPOUND_STATE>
SOLID

> <s_m_entry_id>
55781

> <Molecule_Name>
MolPort-004-667-528

> <Score>
0.9300278594488853

> <BEST_LEAD_TIME>
10

> <s_lp_Variant>
MolPort-004-667-528-1

> <s_m_Source_File>
iis-002-000-000--002-499-999_filtered.sdf

> <r_lp_tautomer_probability>
1.0

> <UNVERIFIED_AMOUNT_MG>
300.0

$$$$
MolPort-020-191-658
XX    ILIB07022204093D

 42 45  0  0  1  0              1 V2000
    2.3574   -4.4062   -4.7500 S   0  0  0  0  0
    0.7314   -4.4434   -4.4199 N   0  0  0  0  0
    2.8115   -3.0459   -3.9189 N   0  0  0  0  0
   -0.5752   -0.7468    1.4468 N   0  0  0  0  0
   -1.0200   -2.0098    1.3833 N   0  0  0  0  0
   -2.2168   -0.3363   -0.9685 N   0  0  0  0  0
   -3.2129   -2.0918   -1.9346 N   0  0  0  0  0
   -2.0742   -1.4609   -1.7505 C   0  0  0  0  0
    0.4760   -3.3838   -3.6367 C   0  0  0  0  0
    1.7046   -2.5557   -3.3379 C   0  0  0  0  0
   -0.6609   -0.1987    2.6885 C   0  0  0  0  0
   -1.3779   -2.2969    2.6445 C   0  0  0  0  0
   -3.5527   -0.2657   -0.6453 C   0  0  0  0  0
   -4.1367   -1.3540   -1.2485 C   0  0  0  0  0
   -0.8167   -1.8696   -2.3086 C   0  0  0  0  0
   -0.7874   -3.0234   -3.1104 C   0  0  0  0  0
    1.6040   -1.4038   -2.5156 C   0  0  0  0  0
   -1.1895   -1.1753    3.4951 C   0  0  0  0  0
    0.3268   -1.0879   -2.0215 C   0  0  0  0  0
   -1.1748    0.5823   -0.5701 C   0  0  2  0  0
   -0.0892   -0.1309    0.2336 C   0  0  0  0  0
   -0.2405    1.1851    2.9551 C   0  0  0  0  0
   -1.9106   -3.6279    2.9658 C   0  0  0  0  0
   -1.7773    1.7769    0.1603 C   0  0  0  0  0
   -3.9075    0.5217   -0.0481 H   0  0  0  0  0
   -5.1432   -1.6528   -1.2364 H   0  0  0  0  0
   -1.6325   -3.6076   -3.3272 H   0  0  0  0  0
    2.4599   -0.8339   -2.3034 H   0  0  0  0  0
   -1.3614   -0.9799    4.5123 H   0  0  0  0  0
    0.2405   -0.2335   -1.4173 H   0  0  0  0  0
   -0.7358    1.0056   -1.4248 H   0  0  0  0  0
    0.3287   -0.8659   -0.3890 H   0  0  0  0  0
    0.6428    0.5830    0.4724 H   0  0  0  0  0
    0.4494    1.4884    2.2239 H   0  0  0  0  0
   -1.0788    1.8168    2.9288 H   0  0  0  0  0
    0.2081    1.2382    3.9030 H   0  0  0  0  0
   -1.1850   -4.1786    3.4880 H   0  0  0  0  0
   -2.7692   -3.5268    3.5617 H   0  0  0  0  0
   -2.1583   -4.1296    2.0773 H   0  0  0  0  0
   -2.7767    1.9011   -0.1368 H   0  0  0  0  0
   -1.7382    1.6098    1.1962 H   0  0  0  0  0
   -1.2320    2.6427   -0.0754 H   0  0  0  0  0
  1  2  1  0  0  0
  1  3  1  0  0  0
  2  9  2  0  0  0
  3 10  2  0  0  0
  4  5  1  0  0  0
  4 11  1  0  0  0
  4 21  1  0  0  0
  5 12  2  0  0  0
  6  8  1  0  0  0
  6 13  1  0  0  0
  6 20  1  0  0  0
  7  8  2  0  0  0
  7 14  1  0  0  0
  8 15  1  0  0  0
  9 10  1  0  0  0
  9 16  1  0  0  0
 10 17  1  0  0  0
 11 18  2  0  0  0
 11 22  1  0  0  0
 12 18  1  0  0  0
 12 23  1  0  0  0
 13 14  2  0  0  0
 13 25  1  0  0  0
 14 26  1  0  0  0
 15 16  2  0  0  0
 15 19  1  0  0  0
 16 27  1  0  0  0
 17 19  2  0  0  0
 17 28  1  0  0  0
 18 29  1  0  0  0
 19 30  1  0  0  0
 20 21  1  0  0  0
 20 24  1  0  0  0
 20 31  1  0  0  0
 21 32  1  0  0  0
 21 33  1  0  0  0
 22 34  1  0  0  0
 22 35  1  0  0  0
 22 36  1  0  0  0
 23 37  1  0  0  0
 23 38  1  0  0  0
 23 39  1  0  0  0
 24 40  1  0  0  0
 24 41  1  0  0  0
 24 42  1  0  0  0
M  END
> <QPhAR in domain>
True

> <s_m_source_file>
iis-005-000-000--005-499-999_filtered_optim.maegz

> <r_epik_Charging_Adjusted_Penalty>
0.124002

> <PRICERANGE_1MG>
< 50

> <Name>
MolPort-020-191-658

> <i_m_Source_File_Index>
3084

> <i_lp_mmshare_version>
36015

> <PUBCHEM_EXT_DATASOURCE_URL>
https://www.molport.com

> <s_lp_Force_Field>
OPLS3

> <r_epik_Ionization_Penalty>
0.0662215

> <r_epik_State_Penalty>
0.0577918

> <IS_SC>
Yes

> <r_epik_Ionization_Penalty_Neutral>
1.08316E-5

> <s_m_Source_Path>
/home/mrgulotta/data_server/CADD/LIBRERIE/OTTIMIZZATE/MOLPORT/ALL_STOCK_COMPOUNDS_FILTERED_NEW

> <i_m_source_file_index>
3084

> <PUBCHEM_EXT_SUBSTANCE_URL>
https://www.molport.com/shop/molecule-link/MolPort-020-191-658

> <VERIFIED_AMOUNT_MG>
5

> <r_epik_Ionization_Penalty_Charging>
0.0662106

> <r_lp_Energy>
12.3924

> <QC_METHOD>
LCMS

> <QPhAR prediction>
6.9096769511251

> <i_epik_Tot_abs_Q>
0

> <i_epik_Tot_Q>
0

> <cdk:Title>
null

> <b_lp_Chiralities_Consistent>
1

> <s_m_entry_name>
iis-005-000-000--005-499-999_filtered.3084

> <i_f3d_flags>
0

> <PRICERANGE_5MG>
50 - 100

> <COMPOUND_STATE>
FILM

> <s_m_entry_id>
3084

> <Molecule_Name>
MolPort-020-191-658

> <Score>
0.9202045753758658

> <BEST_LEAD_TIME>
12

> <s_lp_Variant>
MolPort-020-191-658-1

> <s_m_Source_File>
iis-005-000-000--005-499-999_filtered.sdf

> <r_lp_tautomer_probability>
1.0

> <UNVERIFIED_AMOUNT_MG>
5

$$$$
MolPort-028-819-813
XX    ILIB07022204093D

 54 58  0  0  1  0              1 V2000
    0.8926   -0.9958   -0.1330 Cl  0  0  0  0  0
   -3.9189   -0.1376    7.0039 S   0  0  0  0  0
   -5.2305   -0.6895    6.7422 O   0  0  0  0  0
   -3.6777    0.8135    8.0664 O   0  0  0  0  0
   -1.4580   -0.1094    3.9277 N   0  0  0  0  0
   -3.0732   -0.7693    0.1216 N   0  0  0  0  0
   -0.7747   -1.0420   -0.5552 C   0  0  0  0  0
   -3.4863   -1.1230   -1.1099 C   0  0  0  0  0
   -1.7461   -0.7397    0.3745 C   0  0  0  0  0
   -2.1572   -0.6082    2.8359 C   0  0  0  0  0
   -0.2748    0.4796    3.4883 C   0  0  0  0  0
   -2.5791   -1.4551   -2.1367 C   0  0  0  0  0
   -1.2046   -1.3857   -1.8330 C   0  0  0  0  0
   -1.3921   -0.3685    1.7114 C   0  0  0  0  0
   -0.2263   -1.7041   -2.8340 C   0  0  0  0  0
   -4.8535   -1.1650   -1.3862 C   0  0  0  0  0
   -0.2170    0.2959    2.1172 C   0  0  0  0  0
   -3.0713   -1.8267   -3.4033 C   0  0  0  0  0
    0.2469   -0.6719   -3.6553 C   0  0  0  0  0
    0.2133   -3.0381   -2.9346 C   0  0  0  0  0
   -5.3418   -1.5254   -2.6465 C   0  0  0  0  0
   -4.4395   -1.8623   -3.6523 C   0  0  0  0  0
    1.1914   -0.9585   -4.6406 C   0  0  0  0  0
    1.1685   -3.2881   -3.9316 C   0  0  0  0  0
    1.6538   -2.2705   -4.7656 C   0  0  0  0  0
   -3.2617    0.5237    5.4785 C   0  0  0  0  0
   -2.7510   -1.4805    7.1641 C   0  0  0  0  0
   -1.9062   -0.1555    5.3008 C   0  0  1  0  0
   -3.4619   -1.2593    3.0244 C   0  0  0  0  0
    0.6443    1.1118    4.4473 C   0  0  0  0  0
   -2.0781   -1.5903    5.8008 C   0  0  0  0  0
   -5.5482   -0.9219   -0.6373 H   0  0  0  0  0
    0.6155    0.6378    1.5763 H   0  0  0  0  0
   -2.4031   -2.0808   -4.1723 H   0  0  0  0  0
   -0.1097    0.3072   -3.5260 H   0  0  0  0  0
   -0.1732   -3.7685   -2.2868 H   0  0  0  0  0
   -6.3765   -1.5394   -2.8243 H   0  0  0  0  0
   -4.7935   -2.1436   -4.6000 H   0  0  0  0  0
    1.5411   -0.1948   -5.2707 H   0  0  0  0  0
    1.5408   -4.2601   -4.0700 H   0  0  0  0  0
    2.3747   -2.5061   -5.4917 H   0  0  0  0  0
   -3.1637    1.5658    5.5623 H   0  0  0  0  0
   -3.9145    0.2960    4.6883 H   0  0  0  0  0
   -3.2636   -2.3623    7.4134 H   0  0  0  0  0
   -2.0578   -1.2532    7.9193 H   0  0  0  0  0
   -1.2089    0.3356    5.9133 H   0  0  0  0  0
   -3.6785   -1.3187    4.0501 H   0  0  0  0  0
   -4.2063   -0.6979    2.5415 H   0  0  0  0  0
   -3.4327   -2.2263    2.6162 H   0  0  0  0  0
    0.6104    0.5923    5.3591 H   0  0  0  0  0
    1.6219    1.0847    4.0651 H   0  0  0  0  0
    0.3566    2.1097    4.6021 H   0  0  0  0  0
   -1.1499   -2.0696    5.9062 H   0  0  0  0  0
   -2.6883   -2.1477    5.1532 H   0  0  0  0  0
  1  7  1  0  0  0
  2  3  2  0  0  0
  2  4  2  0  0  0
  2 26  1  0  0  0
  2 27  1  0  0  0
  5 10  1  0  0  0
  5 11  1  0  0  0
  5 28  1  0  0  0
  6  8  2  0  0  0
  6  9  1  0  0  0
  7  9  2  0  0  0
  7 13  1  0  0  0
  8 12  1  0  0  0
  8 16  1  0  0  0
  9 14  1  0  0  0
 10 14  2  0  0  0
 10 29  1  0  0  0
 11 17  2  0  0  0
 11 30  1  0  0  0
 12 13  2  0  0  0
 12 18  1  0  0  0
 13 15  1  0  0  0
 14 17  1  0  0  0
 15 19  2  0  0  0
 15 20  1  0  0  0
 16 21  2  0  0  0
 16 32  1  0  0  0
 17 33  1  0  0  0
 18 22  2  0  0  0
 18 34  1  0  0  0
 19 23  1  0  0  0
 19 35  1  0  0  0
 20 24  2  0  0  0
 20 36  1  0  0  0
 21 22  1  0  0  0
 21 37  1  0  0  0
 22 38  1  0  0  0
 23 25  2  0  0  0
 23 39  1  0  0  0
 24 25  1  0  0  0
 24 40  1  0  0  0
 25 41  1  0  0  0
 26 28  1  0  0  0
 26 42  1  0  0  0
 26 43  1  0  0  0
 27 31  1  0  0  0
 27 44  1  0  0  0
 27 45  1  0  0  0
 28 31  1  0  0  0
 28 46  1  0  0  0
 29 47  1  0  0  0
 29 48  1  0  0  0
 29 49  1  0  0  0
 30 50  1  0  0  0
 30 51  1  0  0  0
 30 52  1  0  0  0
 31 53  1  0  0  0
 31 54  1  0  0  0
M  END
> <QPhAR in domain>
True

> <s_m_source_file>
iis-005-500-000--005-999-999_filtered_optim.maegz

> <PRICERANGE_50MG>
100 - 250

> <r_epik_Charging_Adjusted_Penalty>
0.0

> <PRICERANGE_1MG>
50 - 100

> <Name>
MolPort-028-819-813

> <i_m_Source_File_Index>
47541

> <i_lp_mmshare_version>
36015

> <PUBCHEM_EXT_DATASOURCE_URL>
https://www.molport.com

> <s_lp_Force_Field>
OPLS3

> <r_epik_Ionization_Penalty>
1.17228E-5

> <r_epik_State_Penalty>
0.0

> <IS_SC>
Yes

> <r_epik_Ionization_Penalty_Neutral>
1.17228E-5

> <s_m_Source_Path>
/home/mrgulotta/data_server/CADD/LIBRERIE/OTTIMIZZATE/MOLPORT/ALL_STOCK_COMPOUNDS_FILTERED_NEW

> <i_m_source_file_index>
47541

> <PUBCHEM_EXT_SUBSTANCE_URL>
https://www.molport.com/shop/molecule-link/MolPort-028-819-813

> <VERIFIED_AMOUNT_MG>
300

> <r_epik_Ionization_Penalty_Charging>
0.0

> <r_lp_Energy>
48.3725

> <QC_METHOD>
NMR

> <QPhAR prediction>
6.9096769511251

> <i_epik_Tot_abs_Q>
0

> <i_epik_Tot_Q>
0

> <cdk:Title>
null

> <b_lp_Chiralities_Consistent>
1

> <s_m_entry_name>
iis-005-500-000--005-999-999_filtered.47541

> <i_f3d_flags>
0

> <PRICERANGE_5MG>
50 - 100

> <COMPOUND_STATE>
SOLID

> <s_m_entry_id>
192965

> <Molecule_Name>
MolPort-028-819-813

> <Score>
0.9461526298493889

> <BEST_LEAD_TIME>
10

> <s_lp_Variant>
MolPort-028-819-813-1

> <s_m_Source_File>
iis-005-500-000--005-999-999_filtered.sdf

> <r_lp_tautomer_probability>
1.0

> <UNVERIFIED_AMOUNT_MG>
300

$$$$
MolPort-009-606-604
XX    ILIB07022204093D

 64 67  0  0  1  0              1 V2000
   -1.9062   -0.0868    2.7725 S   0  0  0  0  0
    4.3418   -7.2051    2.2725 S   0  0  0  0  0
    5.7070   -7.6953    2.3057 O   0  0  0  0  0
    3.2529   -8.1406    2.0781 O   0  0  0  0  0
   -1.6880   -2.0664   -4.4199 O   0  0  0  0  0
    4.9766   -2.5625   -2.4961 O   0  0  0  0  0
    0.2173   -1.7891   -3.1348 O   0  0  0  0  0
   -3.0928   -0.7339    0.2097 N   0  0  0  0  0
    4.0410   -6.2402    3.6895 N   0  0  0  0  0
    2.7266   -3.0225   -2.7168 N   0  0  0  0  0
   -1.0479   -0.5139    1.3521 C   0  0  0  0  0
   -0.4659    0.1144    3.6816 C   0  0  0  0  0
    4.2422   -6.0137    0.9666 C   0  0  0  0  0
   -3.8174   -1.0142   -0.8896 C   0  0  0  0  0
   -1.7451   -0.8135    0.1331 C   0  0  0  0  0
   -3.2139   -1.3799   -2.1104 C   0  0  0  0  0
   -1.8057   -1.4248   -2.1484 C   0  0  0  0  0
    4.0449   -4.1660   -1.0664 C   0  0  0  0  0
    0.3132   -0.5579    1.5835 C   0  0  0  0  0
    0.6416   -0.1620    2.9092 C   0  0  0  0  0
    2.9980   -5.7832    0.3667 C   0  0  0  0  0
    5.4219   -5.3418    0.5889 C   0  0  0  0  0
   -5.2090   -0.9436   -0.8259 C   0  0  0  0  0
   -1.0542   -1.1567   -1.0088 C   0  0  0  0  0
   -4.0254   -1.6704   -3.2246 C   0  0  0  0  0
    2.8975   -4.8555   -0.6692 C   0  0  0  0  0
    5.2812   -4.4102   -0.4512 C   0  0  0  0  0
   -6.0137   -1.2236   -1.9346 C   0  0  0  0  0
   -5.4121   -1.5942   -3.1338 C   0  0  0  0  0
   -1.1172   -1.7881   -3.3799 C   0  0  0  0  0
    3.9756   -3.1777   -2.1338 C   0  0  0  0  0
    1.0332   -2.1621   -4.2324 C   0  0  0  0  0
    5.0898   -5.2871    4.0840 C   0  0  0  0  0
    2.6768   -5.7051    3.8242 C   0  0  0  0  0
    2.4951   -2.1162   -3.8057 C   0  0  0  0  0
    6.0938   -5.9141    5.0410 C   0  0  0  0  0
    2.2754   -5.5430    5.2812 C   0  0  0  0  0
    1.9405   -3.5576   -2.3765 H   0  0  0  0  0
   -0.5171    0.4114    4.6874 H   0  0  0  0  0
    0.9663   -0.8594    0.8186 H   0  0  0  0  0
    1.6039   -0.0699    3.3192 H   0  0  0  0  0
    2.1504   -6.3072    0.6977 H   0  0  0  0  0
    6.3263   -5.5533    1.0787 H   0  0  0  0  0
   -5.6804   -0.6740    0.0728 H   0  0  0  0  0
   -0.0055   -1.2066   -0.9929 H   0  0  0  0  0
   -3.5852   -1.9481   -4.1365 H   0  0  0  0  0
    1.9817   -4.6709   -1.1485 H   0  0  0  0  0
    6.1365   -3.8890   -0.7664 H   0  0  0  0  0
   -7.0584   -1.1531   -1.8563 H   0  0  0  0  0
   -6.0060   -1.8164   -3.9707 H   0  0  0  0  0
    0.8764   -1.4948   -5.0278 H   0  0  0  0  0
    0.7850   -3.1355   -4.5381 H   0  0  0  0  0
    4.6508   -4.4615    4.5617 H   0  0  0  0  0
    5.6073   -4.9628    3.2299 H   0  0  0  0  0
    1.9968   -6.3609    3.3660 H   0  0  0  0  0
    2.6224   -4.7645    3.3607 H   0  0  0  0  0
    2.7330   -1.1389   -3.5043 H   0  0  0  0  0
    3.0982   -2.3876   -4.6212 H   0  0  0  0  0
    6.6446   -5.1568    5.5160 H   0  0  0  0  0
    6.7465   -6.5375    4.5045 H   0  0  0  0  0
    5.5829   -6.4805    5.7626 H   0  0  0  0  0
    3.1376   -5.4604    5.8747 H   0  0  0  0  0
    1.6919   -4.6768    5.3892 H   0  0  0  0  0
    1.7194   -6.3798    5.5862 H   0  0  0  0  0
  1 11  1  0  0  0
  1 12  1  0  0  0
  2  3  2  0  0  0
  2  4  2  0  0  0
  2  9  1  0  0  0
  2 13  1  0  0  0
  5 30  2  0  0  0
  6 31  2  0  0  0
  7 30  1  0  0  0
  7 32  1  0  0  0
  8 14  2  0  0  0
  8 15  1  0  0  0
  9 33  1  0  0  0
  9 34  1  0  0  0
 10 31  1  0  0  0
 10 35  1  0  0  0
 10 38  1  0  0  0
 11 15  1  0  0  0
 11 19  2  0  0  0
 12 20  2  0  0  0
 12 39  1  0  0  0
 13 21  2  0  0  0
 13 22  1  0  0  0
 14 16  1  0  0  0
 14 23  1  0  0  0
 15 24  2  0  0  0
 16 17  2  0  0  0
 16 25  1  0  0  0
 17 24  1  0  0  0
 17 30  1  0  0  0
 18 26  2  0  0  0
 18 27  1  0  0  0
 18 31  1  0  0  0
 19 20  1  0  0  0
 19 40  1  0  0  0
 20 41  1  0  0  0
 21 26  1  0  0  0
 21 42  1  0  0  0
 22 27  2  0  0  0
 22 43  1  0  0  0
 23 28  2  0  0  0
 23 44  1  0  0  0
 24 45  1  0  0  0
 25 29  2  0  0  0
 25 46  1  0  0  0
 26 47  1  0  0  0
 27 48  1  0  0  0
 28 29  1  0  0  0
 28 49  1  0  0  0
 29 50  1  0  0  0
 32 35  1  0  0  0
 32 51  1  0  0  0
 32 52  1  0  0  0
 33 36  1  0  0  0
 33 53  1  0  0  0
 33 54  1  0  0  0
 34 37  1  0  0  0
 34 55  1  0  0  0
 34 56  1  0  0  0
 35 57  1  0  0  0
 35 58  1  0  0  0
 36 59  1  0  0  0
 36 60  1  0  0  0
 36 61  1  0  0  0
 37 62  1  0  0  0
 37 63  1  0  0  0
 37 64  1  0  0  0
M  END
> <QPhAR in domain>
True

> <s_m_source_file>
iis-004-000-000--004-499-999_filtered_optim.maegz

> <PRICERANGE_50MG>
100 - 250

> <r_epik_Charging_Adjusted_Penalty>
0.0

> <PRICERANGE_1MG>
50 - 100

> <s_epik_Chemistry_Notes>
This compound has an ester and may undergo hydrolysis at high or low pH.

> <Name>
MolPort-009-606-604

> <i_m_Source_File_Index>
24200

> <i_lp_mmshare_version>
36015

> <PUBCHEM_EXT_DATASOURCE_URL>
https://www.molport.com

> <s_lp_Force_Field>
OPLS3

> <r_epik_Ionization_Penalty>
5.96094E-6

> <r_epik_State_Penalty>
0.0

> <IS_SC>
Yes

> <r_epik_Ionization_Penalty_Neutral>
5.96094E-6

> <s_m_Source_Path>
/home/mrgulotta/data_server/CADD/LIBRERIE/OTTIMIZZATE/MOLPORT/ALL_STOCK_COMPOUNDS_FILTERED_NEW

> <i_m_source_file_index>
24200

> <PUBCHEM_EXT_SUBSTANCE_URL>
https://www.molport.com/shop/molecule-link/MolPort-009-606-604

> <VERIFIED_AMOUNT_MG>
400

> <r_epik_Ionization_Penalty_Charging>
0.0

> <r_lp_Energy>
44.0992

> <QPhAR prediction>
6.909551463571309

> <i_epik_Tot_abs_Q>
0

> <i_epik_Tot_Q>
0

> <cdk:Title>
null

> <b_lp_Chiralities_Consistent>
1

> <s_m_entry_name>
iis-004-000-000--004-499-999_filtered.24200

> <i_f3d_flags>
0

> <PRICERANGE_5MG>
50 - 100

> <COMPOUND_STATE>
SOLID

> <s_m_entry_id>
94978

> <Molecule_Name>
MolPort-009-606-604

> <Score>
0.9303110998725929

> <BEST_LEAD_TIME>
10

> <s_lp_Variant>
MolPort-009-606-604-1

> <s_m_Source_File>
iis-004-000-000--004-499-999_filtered.sdf

> <r_lp_tautomer_probability>
1.0

> <UNVERIFIED_AMOUNT_MG>
400

$$$$
MolPort-039-301-092
XX    ILIB07022204093D

 52 55  0  0  1  0              1 V2000
   -1.2876   -0.6309    3.7480 O   0  0  0  0  0
   -6.4824    0.2225   -1.6084 O   0  0  0  0  0
   -1.5757   -1.6743   -2.9912 N   0  0  0  0  0
   -2.4199   -1.8667   -4.0176 N   0  0  0  0  0
   -1.5923   -1.0581   -0.6614 N   0  0  0  0  0
   -6.6133   -1.9595   -1.0283 N   0  0  0  0  0
   -8.6367   -3.2266    0.9102 N   0  0  0  0  0
   -2.0605   -1.1299    2.7490 C   0  0  0  0  0
   -0.5452    0.3757    3.2051 C   0  0  0  0  0
   -2.2012   -1.3101   -1.8315 C   0  0  0  0  0
   -2.4541   -0.7136    0.3118 C   0  0  0  0  0
   -3.6172   -1.6133   -3.4814 C   0  0  0  0  0
   -3.5645   -1.2515   -2.1123 C   0  0  0  0  0
   -1.8237   -0.4608    1.5718 C   0  0  0  0  0
   -4.4648   -0.8953   -1.0752 C   0  0  0  0  0
   -0.8401    0.5132    1.8643 C   0  0  0  0  0
   -3.8379   -0.6101    0.1664 C   0  0  0  0  0
   -5.9082   -0.8101   -1.2612 C   0  0  0  0  0
   -0.1613   -1.8667   -3.2158 C   0  0  0  0  0
   -8.3945   -3.4062   -0.5474 C   0  0  1  0  0
   -8.0508   -2.0557   -1.1699 C   0  0  0  0  0
   -6.0020   -3.2051   -0.6194 C   0  0  0  0  0
   -2.9512   -2.2373    3.1279 C   0  0  0  0  0
    0.3704    1.0640    4.1270 C   0  0  0  0  0
   -7.1270   -4.2285   -0.7554 C   0  0  0  0  0
    0.3862   -3.0918   -2.4844 C   0  0  0  0  0
    0.6641   -0.6057   -2.9473 C   0  0  0  0  0
   -9.1496   -2.3701    1.0632 H   0  0  0  0  0
   -7.7520   -3.1805    1.3953 H   0  0  0  0  0
   -4.4832   -1.6915   -4.0700 H   0  0  0  0  0
   -0.3505    1.2443    1.2914 H   0  0  0  0  0
   -4.4311   -0.3178    0.9820 H   0  0  0  0  0
   -0.0004   -2.1463   -4.2150 H   0  0  0  0  0
   -9.2589   -3.7931   -1.0008 H   0  0  0  0  0
   -8.3059   -2.0131   -2.1876 H   0  0  0  0  0
   -8.5068   -1.2584   -0.6611 H   0  0  0  0  0
   -5.1914   -3.4211   -1.2509 H   0  0  0  0  0
   -5.6616   -3.1196    0.3702 H   0  0  0  0  0
   -3.0561   -2.8954    2.3165 H   0  0  0  0  0
   -2.5408   -2.7525    3.9456 H   0  0  0  0  0
   -3.8926   -1.8546    3.3921 H   0  0  0  0  0
    1.3400    1.0615    3.7241 H   0  0  0  0  0
    0.0505    2.0548    4.2632 H   0  0  0  0  0
    0.3745    0.5672    5.0520 H   0  0  0  0  0
   -7.0722   -4.9785   -0.0226 H   0  0  0  0  0
   -7.1488   -4.6704   -1.7076 H   0  0  0  0  0
    1.2346   -2.8180   -1.9296 H   0  0  0  0  0
    0.6487   -3.8290   -3.1845 H   0  0  0  0  0
   -0.3485   -3.4701   -1.8367 H   0  0  0  0  0
    1.1384   -0.6899   -2.0143 H   0  0  0  0  0
    1.3884   -0.4947   -3.6994 H   0  0  0  0  0
    0.0317    0.2325   -2.9440 H   0  0  0  0  0
  1  8  1  0  0  0
  1  9  1  0  0  0
  2 18  2  0  0  0
  3  4  1  0  0  0
  3 10  1  0  0  0
  3 19  1  0  0  0
  4 12  2  0  0  0
  5 10  2  0  0  0
  5 11  1  0  0  0
  6 18  1  0  0  0
  6 21  1  0  0  0
  6 22  1  0  0  0
  7 20  1  0  0  0
  7 28  1  0  0  0
  7 29  1  0  0  0
  8 14  2  0  0  0
  8 23  1  0  0  0
  9 16  2  0  0  0
  9 24  1  0  0  0
 10 13  1  0  0  0
 11 14  1  0  0  0
 11 17  2  0  0  0
 12 13  1  0  0  0
 12 30  1  0  0  0
 13 15  2  0  0  0
 14 16  1  0  0  0
 15 17  1  0  0  0
 15 18  1  0  0  0
 16 31  1  0  0  0
 17 32  1  0  0  0
 19 26  1  0  0  0
 19 27  1  0  0  0
 19 33  1  0  0  0
 20 21  1  0  0  0
 20 25  1  0  0  0
 20 34  1  0  0  0
 21 35  1  0  0  0
 21 36  1  0  0  0
 22 25  1  0  0  0
 22 37  1  0  0  0
 22 38  1  0  0  0
 23 39  1  0  0  0
 23 40  1  0  0  0
 23 41  1  0  0  0
 24 42  1  0  0  0
 24 43  1  0  0  0
 24 44  1  0  0  0
 25 45  1  0  0  0
 25 46  1  0  0  0
 26 47  1  0  0  0
 26 48  1  0  0  0
 26 49  1  0  0  0
 27 50  1  0  0  0
 27 51  1  0  0  0
 27 52  1  0  0  0
M  END
> <QPhAR in domain>
True

> <s_m_source_file>
iis-006-000-000--006-499-999_filtered_optim.maegz

> <r_epik_Charging_Adjusted_Penalty>
0.010441

> <PRICERANGE_1MG>
50 - 100

> <Name>
MolPort-039-301-092

> <i_m_Source_File_Index>
114797

> <i_lp_mmshare_version>
36015

> <PUBCHEM_EXT_DATASOURCE_URL>
https://www.molport.com

> <s_lp_Force_Field>
OPLS3

> <r_epik_Ionization_Penalty>
0.0104442

> <r_epik_State_Penalty>
0.0

> <IS_SC>
Yes

> <r_epik_Ionization_Penalty_Neutral>
3.21222E-6

> <s_m_Source_Path>
/home/mrgulotta/data_server/CADD/LIBRERIE/OTTIMIZZATE/MOLPORT/ALL_STOCK_COMPOUNDS_FILTERED_NEW

> <i_m_source_file_index>
114797

> <PUBCHEM_EXT_SUBSTANCE_URL>
https://www.molport.com/shop/molecule-link/MolPort-039-301-092

> <VERIFIED_AMOUNT_MG>
30

> <r_epik_Ionization_Penalty_Charging>
0.010441

> <r_lp_Energy>
38.7345

> <QC_METHOD>
LCMS

> <QPhAR prediction>
6.909551463571309

> <i_epik_Tot_abs_Q>
1

> <i_epik_Tot_Q>
1

> <cdk:Title>
null

> <b_lp_Chiralities_Consistent>
1

> <s_m_entry_name>
iis-006-000-000--006-499-999_filtered.114797

> <i_f3d_flags>
0

> <PRICERANGE_5MG>
50 - 100

> <COMPOUND_STATE>
OIL

> <s_m_entry_id>
393809

> <Molecule_Name>
MolPort-039-301-092

> <Score>
0.9299943907280485

> <BEST_LEAD_TIME>
10

> <s_lp_Variant>
MolPort-039-301-092-1

> <s_m_Source_File>
iis-006-000-000--006-499-999_filtered.sdf

> <r_lp_tautomer_probability>
1.0

> <UNVERIFIED_AMOUNT_MG>
30

$$$$
MolPort-016-923-885
XX    ILIB07022204093D

 49 52  0  0  1  0              1 V2000
    1.1646    0.4600    3.9883 Cl  0  0  0  0  0
   -1.3618    0.5798    5.8496 Cl  0  0  0  0  0
   -4.3516    0.2318   -0.7234 S   0  0  0  0  0
   -5.8281   -0.0342   -4.3223 O   0  0  0  0  0
   -7.8691   -1.5435   -1.2388 O   0  0  0  0  0
   -1.9800   -0.9744    0.2306 N   0  0  0  0  0
   -1.0293   -1.7764   -0.3311 N   0  0  0  0  0
   -6.5625    1.0391   -2.4180 N   0  0  0  0  0
   -9.2578    0.3032   -1.4688 N   0  0  0  0  0
   -0.3936    0.0681    3.3721 C   0  0  0  0  0
   -1.5186    0.1199    4.1973 C   0  0  0  0  0
   -2.9512   -0.6484   -0.6497 C   0  0  0  0  0
   -4.5469   -0.2133   -2.4082 C   0  0  0  0  0
   -1.4453   -1.9458   -1.6060 C   0  0  0  0  0
   -1.8398   -0.6108    1.5625 C   0  0  0  0  0
   -2.6289   -1.2471   -1.7988 C   0  0  0  0  0
   -0.5601   -0.2926    2.0352 C   0  0  0  0  0
   -2.7910   -0.1999    3.7041 C   0  0  0  0  0
   -3.5088   -1.0352   -2.8525 C   0  0  0  0  0
   -2.9951   -0.5740    2.3672 C   0  0  0  0  0
   -5.6699    0.2634   -3.1416 C   0  0  0  0  0
   -8.6875   -0.7551   -0.7754 C   0  0  0  0  0
   -7.7656    1.5669   -2.9990 C   0  0  0  0  0
   -8.9453    0.6006   -2.8379 C   0  0  0  0  0
   -0.6497   -2.7715   -2.5234 C   0  0  0  0  0
   -9.1523   -0.8054    0.6138 C   0  0  0  0  0
   -8.2109   -1.2642    1.7007 C   0  0  0  0  0
   -9.3477   -2.1426    1.2881 C   0  0  0  0  0
    0.3655   -1.9390   -3.2383 C   0  0  0  0  0
   -6.3768    1.2505   -1.4480 H   0  0  0  0  0
   -9.9261    0.9058   -1.0102 H   0  0  0  0  0
    0.2697   -0.3239    1.3926 H   0  0  0  0  0
   -3.6253   -0.1632    4.3406 H   0  0  0  0  0
   -3.4987   -1.3781   -3.8449 H   0  0  0  0  0
   -3.9297   -0.8177    1.9554 H   0  0  0  0  0
   -7.6144    1.7354   -4.0243 H   0  0  0  0  0
   -8.0136    2.4722   -2.5284 H   0  0  0  0  0
   -8.6961   -0.2868   -3.3407 H   0  0  0  0  0
   -9.7789    1.0420   -3.2992 H   0  0  0  0  0
   -1.2834   -3.2168   -3.2324 H   0  0  0  0  0
   -0.1527   -3.5196   -1.9794 H   0  0  0  0  0
   -9.4482    0.1548    0.9189 H   0  0  0  0  0
   -8.2353   -0.5799    2.4967 H   0  0  0  0  0
   -7.2349   -1.3207    1.3176 H   0  0  0  0  0
   -9.2897   -2.9078    0.5714 H   0  0  0  0  0
  -10.2900   -2.1670    1.7506 H   0  0  0  0  0
    1.2637   -1.9388   -2.6945 H   0  0  0  0  0
    0.0106   -0.9549   -3.3282 H   0  0  0  0  0
    0.5353   -2.3386   -4.1943 H   0  0  0  0  0
  1 10  1  0  0  0
  2 11  1  0  0  0
  3 12  1  0  0  0
  3 13  1  0  0  0
  4 21  2  0  0  0
  5 22  2  0  0  0
  6  7  1  0  0  0
  6 12  1  0  0  0
  6 15  1  0  0  0
  7 14  2  0  0  0
  8 21  1  0  0  0
  8 23  1  0  0  0
  8 30  1  0  0  0
  9 22  1  0  0  0
  9 24  1  0  0  0
  9 31  1  0  0  0
 10 11  2  0  0  0
 10 17  1  0  0  0
 11 18  1  0  0  0
 12 16  2  0  0  0
 13 19  2  0  0  0
 13 21  1  0  0  0
 14 16  1  0  0  0
 14 25  1  0  0  0
 15 17  2  0  0  0
 15 20  1  0  0  0
 16 19  1  0  0  0
 17 32  1  0  0  0
 18 20  2  0  0  0
 18 33  1  0  0  0
 19 34  1  0  0  0
 20 35  1  0  0  0
 22 26  1  0  0  0
 23 24  1  0  0  0
 23 36  1  0  0  0
 23 37  1  0  0  0
 24 38  1  0  0  0
 24 39  1  0  0  0
 25 29  1  0  0  0
 25 40  1  0  0  0
 25 41  1  0  0  0
 26 27  1  0  0  0
 26 28  1  0  0  0
 26 42  1  0  0  0
 27 28  1  0  0  0
 27 43  1  0  0  0
 27 44  1  0  0  0
 28 45  1  0  0  0
 28 46  1  0  0  0
 29 47  1  0  0  0
 29 48  1  0  0  0
 29 49  1  0  0  0
M  END
> <QPhAR in domain>
True

> <s_m_source_file>
iis-004-500-000--004-999-999_filtered_optim.maegz

> <r_epik_Charging_Adjusted_Penalty>
0.0

> <PRICERANGE_1MG>
50 - 100

> <Name>
MolPort-016-923-885

> <i_m_Source_File_Index>
34708

> <i_lp_mmshare_version>
36015

> <PUBCHEM_EXT_DATASOURCE_URL>
https://www.molport.com

> <s_lp_Force_Field>
OPLS3

> <r_epik_Ionization_Penalty>
9.03462E-6

> <r_epik_State_Penalty>
0.0

> <IS_SC>
Yes

> <r_epik_Ionization_Penalty_Neutral>
9.03462E-6

> <s_m_Source_Path>
/home/mrgulotta/data_server/CADD/LIBRERIE/OTTIMIZZATE/MOLPORT/ALL_STOCK_COMPOUNDS_FILTERED_NEW

> <i_m_source_file_index>
34708

> <PUBCHEM_EXT_SUBSTANCE_URL>
https://www.molport.com/shop/molecule-link/MolPort-016-923-885

> <VERIFIED_AMOUNT_MG>
30

> <r_epik_Ionization_Penalty_Charging>
0.0

> <r_lp_Energy>
19.8493

> <QC_METHOD>
LCMS

> <QPhAR prediction>
6.907602616515819

> <i_epik_Tot_abs_Q>
0

> <i_epik_Tot_Q>
0

> <cdk:Title>
null

> <b_lp_Chiralities_Consistent>
1

> <s_m_entry_name>
iis-004-500-000--004-999-999_filtered.34708

> <i_f3d_flags>
0

> <PRICERANGE_5MG>
50 - 100

> <COMPOUND_STATE>
SOLID

> <s_m_entry_id>
170294

> <Molecule_Name>
MolPort-016-923-885

> <Score>
0.9473531728764222

> <BEST_LEAD_TIME>
10

> <s_lp_Variant>
MolPort-016-923-885-1

> <s_m_Source_File>
iis-004-500-000--004-999-999_filtered.sdf

> <r_lp_tautomer_probability>
1.0

> <UNVERIFIED_AMOUNT_MG>
30.0

$$$$
MolPort-007-181-398
XX    ILIB07022204093D

 52 56  0  0  1  0              1 V2000
    0.8481   -2.9688    3.9824 S   0  0  0  0  0
   -0.7993   -0.3080    4.8281 S   0  0  0  0  0
    0.9102   -5.7207   -0.3065 O   0  0  0  0  0
   -1.9106   -0.1877   -0.3152 N   0  0  0  0  0
   -1.2104   -3.5557    2.5898 N   0  0  0  0  0
   -1.1885   -4.7832   -0.6326 N   0  0  0  0  0
   -0.7590   -2.6416    3.4277 C   0  0  0  0  0
   -1.4937   -1.4980    3.8096 C   0  0  0  0  0
    0.8945   -4.4375    3.1025 C   0  0  0  0  0
   -2.2246    0.6453    4.8242 C   0  0  0  0  0
   -3.0166   -0.5720   -1.0552 C   0  0  0  0  0
   -0.2976   -4.5762    2.4170 C   0  0  0  0  0
   -0.8643   -1.0508   -0.5591 C   0  0  0  0  0
   -2.6348   -1.6733   -1.8252 C   0  0  0  0  0
   -1.2544   -1.9292   -1.5552 C   0  0  0  0  0
   -0.0477   -2.6582   -3.5400 C   0  0  0  0  0
   -2.7734   -1.1450    3.4268 C   0  0  0  0  0
   -3.1982    0.0652    4.0391 C   0  0  0  0  0
   -4.3184   -0.0508   -1.1167 C   0  0  0  0  0
   -3.5947   -2.2881   -2.6602 C   0  0  0  0  0
    1.1299   -1.9331   -3.7656 C   0  0  0  0  0
   -0.8960   -3.0996   -4.5723 C   0  0  0  0  0
   -5.2480   -0.6714   -1.9590 C   0  0  0  0  0
   -4.9043   -1.7900   -2.7188 C   0  0  0  0  0
    1.4946   -1.6074   -5.0703 C   0  0  0  0  0
   -0.4949   -2.7598   -5.8750 C   0  0  0  0  0
    0.6785   -2.0332   -6.1211 C   0  0  0  0  0
   -0.2043   -5.4141    0.1127 C   0  0  0  0  0
   -1.0010   -4.4121   -2.0068 C   0  0  0  0  0
   -0.4182   -2.9854   -2.1387 C   0  0  2  0  0
   -0.6362   -5.7012    1.5366 C   0  0  0  0  0
   -1.9622    0.6216    0.2869 H   0  0  0  0  0
   -2.0805   -4.5669   -0.2110 H   0  0  0  0  0
    1.7441   -5.0525    3.1520 H   0  0  0  0  0
   -2.2607    1.5379    5.3760 H   0  0  0  0  0
    0.0297   -0.9587   -0.0162 H   0  0  0  0  0
   -3.3073   -1.7521    2.7568 H   0  0  0  0  0
   -4.1385    0.5229    3.9451 H   0  0  0  0  0
   -4.5764    0.7868   -0.5384 H   0  0  0  0  0
   -3.3288   -3.1218   -3.2405 H   0  0  0  0  0
    1.7293   -1.6398   -2.9549 H   0  0  0  0  0
   -1.7632   -3.6450   -4.3421 H   0  0  0  0  0
   -6.2262   -0.2962   -2.0282 H   0  0  0  0  0
   -5.6172   -2.2584   -3.3310 H   0  0  0  0  0
    2.3679   -1.0523   -5.2483 H   0  0  0  0  0
   -1.0796   -3.0510   -6.6971 H   0  0  0  0  0
    0.9406   -1.8099   -7.1131 H   0  0  0  0  0
   -0.3362   -5.0845   -2.4633 H   0  0  0  0  0
   -1.9244   -4.4396   -2.5059 H   0  0  0  0  0
    0.4606   -3.0884   -1.5734 H   0  0  0  0  0
   -1.6744   -5.8574    1.5518 H   0  0  0  0  0
   -0.1470   -6.5676    1.8719 H   0  0  0  0  0
  1  7  1  0  0  0
  1  9  1  0  0  0
  2  8  1  0  0  0
  2 10  1  0  0  0
  3 28  2  0  0  0
  4 11  1  0  0  0
  4 13  1  0  0  0
  4 32  1  0  0  0
  5  7  2  0  0  0
  5 12  1  0  0  0
  6 28  1  0  0  0
  6 29  1  0  0  0
  6 33  1  0  0  0
  7  8  1  0  0  0
  8 17  2  0  0  0
  9 12  2  0  0  0
  9 34  1  0  0  0
 10 18  2  0  0  0
 10 35  1  0  0  0
 11 14  2  0  0  0
 11 19  1  0  0  0
 12 31  1  0  0  0
 13 15  2  0  0  0
 13 36  1  0  0  0
 14 15  1  0  0  0
 14 20  1  0  0  0
 15 30  1  0  0  0
 16 21  2  0  0  0
 16 22  1  0  0  0
 16 30  1  0  0  0
 17 18  1  0  0  0
 17 37  1  0  0  0
 18 38  1  0  0  0
 19 23  2  0  0  0
 19 39  1  0  0  0
 20 24  2  0  0  0
 20 40  1  0  0  0
 21 25  1  0  0  0
 21 41  1  0  0  0
 22 26  2  0  0  0
 22 42  1  0  0  0
 23 24  1  0  0  0
 23 43  1  0  0  0
 24 44  1  0  0  0
 25 27  2  0  0  0
 25 45  1  0  0  0
 26 27  1  0  0  0
 26 46  1  0  0  0
 27 47  1  0  0  0
 28 31  1  0  0  0
 29 30  1  0  0  0
 29 48  1  0  0  0
 29 49  1  0  0  0
 30 50  1  0  0  0
 31 51  1  0  0  0
 31 52  1  0  0  0
M  END
> <QPhAR in domain>
True

> <s_m_source_file>
iis-003-000-000--003-499-999_filtered_optim.maegz

> <PRICERANGE_50MG>
100 - 250

> <r_epik_Charging_Adjusted_Penalty>
0.0

> <PRICERANGE_1MG>
50 - 100

> <Name>
MolPort-007-181-398

> <i_m_Source_File_Index>
9126

> <i_lp_mmshare_version>
36015

> <PUBCHEM_EXT_DATASOURCE_URL>
https://www.molport.com

> <s_lp_Force_Field>
OPLS3

> <r_epik_Ionization_Penalty>
7.84289E-7

> <r_epik_State_Penalty>
0.0

> <IS_SC>
Yes

> <r_epik_Ionization_Penalty_Neutral>
7.84289E-7

> <s_m_Source_Path>
/home/mrgulotta/data_server/CADD/LIBRERIE/OTTIMIZZATE/MOLPORT/ALL_STOCK_COMPOUNDS_FILTERED_NEW

> <i_m_source_file_index>
9126

> <PUBCHEM_EXT_SUBSTANCE_URL>
https://www.molport.com/shop/molecule-link/MolPort-007-181-398

> <VERIFIED_AMOUNT_MG>
100

> <r_epik_Ionization_Penalty_Charging>
0.0

> <r_lp_Energy>
24.4949

> <QC_METHOD>
LCMS

> <QPhAR prediction>
6.890977096857658

> <i_epik_Tot_abs_Q>
0

> <i_epik_Tot_Q>
0

> <cdk:Title>
null

> <b_lp_Chiralities_Consistent>
1

> <s_m_entry_name>
iis-003-000-000--003-499-999_filtered.9126

> <i_f3d_flags>
0

> <PRICERANGE_5MG>
50 - 100

> <COMPOUND_STATE>
SOLID

> <s_m_entry_id>
167555

> <Molecule_Name>
MolPort-007-181-398

> <Score>
0.9404714387407136

> <BEST_LEAD_TIME>
10

> <s_lp_Variant>
MolPort-007-181-398-1

> <s_m_Source_File>
iis-003-000-000--003-499-999_filtered.sdf

> <r_lp_tautomer_probability>
1.0

> <UNVERIFIED_AMOUNT_MG>
100

$$$$
MolPort-009-599-062
XX    ILIB07022204093D

 55 59  0  0  1  0              1 V2000
    0.8667   -3.0840    3.9395 S   0  0  0  0  0
    0.8604   -5.7832   -0.3833 O   0  0  0  0  0
   -1.8765   -0.2092   -0.3063 N   0  0  0  0  0
   -1.2090   -3.6230    2.5527 N   0  0  0  0  0
   -1.2256   -4.8105   -0.6843 N   0  0  0  0  0
   -0.7388   -2.7266    3.3994 C   0  0  0  0  0
    0.8855   -4.5430    3.0410 C   0  0  0  0  0
   -2.9932   -0.5679   -1.0435 C   0  0  0  0  0
   -0.3130   -4.6543    2.3613 C   0  0  0  0  0
   -0.8447   -1.0850   -0.5671 C   0  0  0  0  0
   -2.6318   -1.6650   -1.8296 C   0  0  0  0  0
   -1.4653   -1.5566    3.8057 C   0  0  0  0  0
   -1.2544   -1.9448   -1.5718 C   0  0  0  0  0
   -0.0713   -2.6670   -3.5732 C   0  0  0  0  0
   -4.2871   -0.0263   -1.0903 C   0  0  0  0  0
   -3.6074   -2.2549   -2.6660 C   0  0  0  0  0
   -0.8450   -0.6589    4.6855 C   0  0  0  0  0
   -2.7637   -1.3682    3.2939 C   0  0  0  0  0
    1.1157   -1.9575   -3.7979 C   0  0  0  0  0
   -0.9329   -3.0830   -4.6055 C   0  0  0  0  0
   -5.2305   -0.6226   -1.9341 C   0  0  0  0  0
   -4.9082   -1.7363   -2.7090 C   0  0  0  0  0
   -1.5342    0.4796    5.0996 C   0  0  0  0  0
   -3.4238   -0.2087    3.7275 C   0  0  0  0  0
    1.4771   -1.6211   -5.1016 C   0  0  0  0  0
   -0.5344   -2.7344   -5.9043 C   0  0  0  0  0
   -2.8223    0.7012    4.6074 C   0  0  0  0  0
    0.6482   -2.0215   -6.1523 C   0  0  0  0  0
   -0.2468   -5.4648    0.0469 C   0  0  0  0  0
   -1.0410   -4.4258   -2.0557 C   0  0  0  0  0
   -0.4380   -3.0068   -2.1738 C   0  0  2  0  0
   -0.6741   -5.7637    1.4697 C   0  0  0  0  0
   -1.9118    0.5936    0.3056 H   0  0  0  0  0
   -2.1115   -4.5858   -0.2545 H   0  0  0  0  0
    1.7258   -5.1715    3.0778 H   0  0  0  0  0
    0.0537   -1.0132   -0.0284 H   0  0  0  0  0
   -4.5287    0.8079   -0.5002 H   0  0  0  0  0
   -3.3583   -3.0853   -3.2584 H   0  0  0  0  0
    0.1301   -0.8471    5.0265 H   0  0  0  0  0
   -3.1750   -2.0730    2.6332 H   0  0  0  0  0
    1.7249   -1.6835   -2.9878 H   0  0  0  0  0
   -1.8072   -3.6174   -4.3763 H   0  0  0  0  0
   -6.2034   -0.2321   -1.9929 H   0  0  0  0  0
   -5.6327   -2.1859   -3.3218 H   0  0  0  0  0
   -1.0839    1.1513    5.7693 H   0  0  0  0  0
   -4.3972   -0.0022    3.3922 H   0  0  0  0  0
    2.3575   -1.0770   -5.2785 H   0  0  0  0  0
   -1.1275   -3.0075   -6.7265 H   0  0  0  0  0
   -3.3542    1.5593    4.8959 H   0  0  0  0  0
    0.9072   -1.7894   -7.1430 H   0  0  0  0  0
   -1.9678   -4.4337   -2.5492 H   0  0  0  0  0
   -0.3891   -5.1025   -2.5243 H   0  0  0  0  0
    0.4425   -3.1305   -1.6153 H   0  0  0  0  0
   -1.7144   -5.9047    1.4900 H   0  0  0  0  0
   -0.1956   -6.6412    1.7914 H   0  0  0  0  0
  1  6  1  0  0  0
  1  7  1  0  0  0
  2 29  2  0  0  0
  3  8  1  0  0  0
  3 10  1  0  0  0
  3 33  1  0  0  0
  4  6  2  0  0  0
  4  9  1  0  0  0
  5 29  1  0  0  0
  5 30  1  0  0  0
  5 34  1  0  0  0
  6 12  1  0  0  0
  7  9  2  0  0  0
  7 35  1  0  0  0
  8 11  2  0  0  0
  8 15  1  0  0  0
  9 32  1  0  0  0
 10 13  2  0  0  0
 10 36  1  0  0  0
 11 13  1  0  0  0
 11 16  1  0  0  0
 12 17  2  0  0  0
 12 18  1  0  0  0
 13 31  1  0  0  0
 14 19  2  0  0  0
 14 20  1  0  0  0
 14 31  1  0  0  0
 15 21  2  0  0  0
 15 37  1  0  0  0
 16 22  2  0  0  0
 16 38  1  0  0  0
 17 23  1  0  0  0
 17 39  1  0  0  0
 18 24  2  0  0  0
 18 40  1  0  0  0
 19 25  1  0  0  0
 19 41  1  0  0  0
 20 26  2  0  0  0
 20 42  1  0  0  0
 21 22  1  0  0  0
 21 43  1  0  0  0
 22 44  1  0  0  0
 23 27  2  0  0  0
 23 45  1  0  0  0
 24 27  1  0  0  0
 24 46  1  0  0  0
 25 28  2  0  0  0
 25 47  1  0  0  0
 26 28  1  0  0  0
 26 48  1  0  0  0
 27 49  1  0  0  0
 28 50  1  0  0  0
 29 32  1  0  0  0
 30 31  1  0  0  0
 30 51  1  0  0  0
 30 52  1  0  0  0
 31 53  1  0  0  0
 32 54  1  0  0  0
 32 55  1  0  0  0
M  END
> <QPhAR in domain>
True

> <s_m_source_file>
iis-004-000-000--004-499-999_filtered_optim.maegz

> <PRICERANGE_50MG>
100 - 250

> <r_epik_Charging_Adjusted_Penalty>
0.0

> <PRICERANGE_1MG>
50 - 100

> <Name>
MolPort-009-599-062

> <i_m_Source_File_Index>
23833

> <i_lp_mmshare_version>
36015

> <PUBCHEM_EXT_DATASOURCE_URL>
https://www.molport.com

> <s_lp_Force_Field>
OPLS3

> <r_epik_Ionization_Penalty>
9.26388E-7

> <r_epik_State_Penalty>
0.0

> <IS_SC>
Yes

> <r_epik_Ionization_Penalty_Neutral>
9.26388E-7

> <s_m_Source_Path>
/home/mrgulotta/data_server/CADD/LIBRERIE/OTTIMIZZATE/MOLPORT/ALL_STOCK_COMPOUNDS_FILTERED_NEW

> <i_m_source_file_index>
23833

> <PUBCHEM_EXT_SUBSTANCE_URL>
https://www.molport.com/shop/molecule-link/MolPort-009-599-062

> <VERIFIED_AMOUNT_MG>
100

> <r_epik_Ionization_Penalty_Charging>
0.0

> <r_lp_Energy>
32.2284

> <QC_METHOD>
LCMS

> <QPhAR prediction>
6.890977096857658

> <i_epik_Tot_abs_Q>
0

> <i_epik_Tot_Q>
0

> <cdk:Title>
null

> <b_lp_Chiralities_Consistent>
1

> <s_m_entry_name>
iis-004-000-000--004-499-999_filtered.23833

> <i_f3d_flags>
0

> <PRICERANGE_5MG>
50 - 100

> <COMPOUND_STATE>
SOLID

> <s_m_entry_id>
94611

> <Molecule_Name>
MolPort-009-599-062

> <Score>
0.939504947631732

> <BEST_LEAD_TIME>
10

> <s_lp_Variant>
MolPort-009-599-062-1

> <s_m_Source_File>
iis-004-000-000--004-499-999_filtered.sdf

> <r_lp_tautomer_probability>
1.0

> <UNVERIFIED_AMOUNT_MG>
100

$$$$
MolPort-046-632-193
XX    ILIB07022204093D

 55 58  0  0  1  0              1 V2000
    2.2852   -3.0635    1.6001 O   0  0  0  0  0
   -2.5469   -1.0962    3.5664 N   0  0  0  0  0
   -1.8218   -0.0379    3.1787 N   0  0  0  0  0
   -2.1748    0.6482   -0.6138 N   0  0  0  0  0
    0.0438   -3.1201    1.0005 N   0  0  0  0  0
   -3.0137   -0.3579   -1.0649 C   0  0  0  0  0
   -1.8228   -2.2393    3.6924 C   0  0  0  0  0
   -0.5706   -0.5137    3.0820 C   0  0  0  0  0
   -0.8848    0.1733   -0.5237 C   0  0  0  0  0
   -2.2158   -1.4771   -1.3169 C   0  0  0  0  0
   -0.5298   -1.9033    3.3750 C   0  0  0  0  0
   -0.8630   -1.1123   -1.0352 C   0  0  0  0  0
    0.7087   -2.1387   -2.5859 C   0  0  0  0  0
   -4.4023   -0.3851   -1.2744 C   0  0  0  0  0
   -2.8320   -2.6670   -1.7646 C   0  0  0  0  0
    1.5996   -1.2192   -3.1562 C   0  0  0  0  0
    0.1603   -3.2266   -3.2920 C   0  0  0  0  0
   -4.9863   -1.5728   -1.7275 C   0  0  0  0  0
   -4.2207   -2.7148   -1.9604 C   0  0  0  0  0
    1.9653   -1.3594   -4.4941 C   0  0  0  0  0
    0.5559   -3.3408   -4.6328 C   0  0  0  0  0
    1.4443   -2.4307   -5.2227 C   0  0  0  0  0
    1.0938   -3.0107    1.8999 C   0  0  0  0  0
    0.2364   -3.3125   -0.4091 C   0  0  0  0  0
    0.3279   -1.9629   -1.1602 C   0  0  2  0  0
    0.6204   -2.8164    3.3457 C   0  0  1  0  0
   -2.4443   -3.5127    4.0879 C   0  0  0  0  0
    0.5215    0.3844    2.6846 C   0  0  0  0  0
    1.8604   -2.5830    4.2422 C   0  0  0  0  0
   -3.5375   -0.9951    3.7352 H   0  0  0  0  0
   -2.5491    1.5634   -0.4079 H   0  0  0  0  0
   -0.9099   -3.0650    1.3285 H   0  0  0  0  0
   -0.1298    0.7786   -0.1163 H   0  0  0  0  0
   -4.9778    0.4738   -1.0912 H   0  0  0  0  0
   -2.2505   -3.5208   -1.9524 H   0  0  0  0  0
    1.9855   -0.4333   -2.5766 H   0  0  0  0  0
   -0.4984   -3.8870   -2.8099 H   0  0  0  0  0
   -6.0212   -1.6168   -1.8991 H   0  0  0  0  0
   -4.6755   -3.6057   -2.2798 H   0  0  0  0  0
    2.6203   -0.6670   -4.9347 H   0  0  0  0  0
    0.1849   -4.1247   -5.2247 H   0  0  0  0  0
    1.7168   -2.5639   -6.2279 H   0  0  0  0  0
    1.1277   -3.8434   -0.5713 H   0  0  0  0  0
   -0.5714   -3.8564   -0.8017 H   0  0  0  0  0
    1.1305   -1.5186   -0.6494 H   0  0  0  0  0
    0.3401   -3.7454    3.7467 H   0  0  0  0  0
   -2.5996   -4.1060    3.2356 H   0  0  0  0  0
   -3.3655   -3.3225    4.5545 H   0  0  0  0  0
   -1.8114   -4.0185    4.7559 H   0  0  0  0  0
    1.2961    0.3275    3.3912 H   0  0  0  0  0
    0.1637    1.3704    2.6361 H   0  0  0  0  0
    0.8854    0.0974    1.7424 H   0  0  0  0  0
    1.9302   -1.5637    4.4846 H   0  0  0  0  0
    2.7257   -2.8803    3.7271 H   0  0  0  0  0
    1.7665   -3.1466    5.1231 H   0  0  0  0  0
  1 23  2  0  0  0
  2  3  1  0  0  0
  2  7  1  0  0  0
  2 30  1  0  0  0
  3  8  2  0  0  0
  4  6  1  0  0  0
  4  9  1  0  0  0
  4 31  1  0  0  0
  5 23  1  0  0  0
  5 24  1  0  0  0
  5 32  1  0  0  0
  6 10  2  0  0  0
  6 14  1  0  0  0
  7 11  2  0  0  0
  7 27  1  0  0  0
  8 11  1  0  0  0
  8 28  1  0  0  0
  9 12  2  0  0  0
  9 33  1  0  0  0
 10 12  1  0  0  0
 10 15  1  0  0  0
 11 26  1  0  0  0
 12 25  1  0  0  0
 13 16  2  0  0  0
 13 17  1  0  0  0
 13 25  1  0  0  0
 14 18  2  0  0  0
 14 34  1  0  0  0
 15 19  2  0  0  0
 15 35  1  0  0  0
 16 20  1  0  0  0
 16 36  1  0  0  0
 17 21  2  0  0  0
 17 37  1  0  0  0
 18 19  1  0  0  0
 18 38  1  0  0  0
 19 39  1  0  0  0
 20 22  2  0  0  0
 20 40  1  0  0  0
 21 22  1  0  0  0
 21 41  1  0  0  0
 22 42  1  0  0  0
 23 26  1  0  0  0
 24 25  1  0  0  0
 24 43  1  0  0  0
 24 44  1  0  0  0
 25 45  1  0  0  0
 26 29  1  0  0  0
 26 46  1  0  0  0
 27 47  1  0  0  0
 27 48  1  0  0  0
 27 49  1  0  0  0
 28 50  1  0  0  0
 28 51  1  0  0  0
 28 52  1  0  0  0
 29 53  1  0  0  0
 29 54  1  0  0  0
 29 55  1  0  0  0
M  END
> <QPhAR in domain>
True

> <s_m_source_file>
iis-007-000-000--007-499-999_filtered_optim.maegz

> <r_epik_Charging_Adjusted_Penalty>
0.0

> <PRICERANGE_1MG>
50 - 100

> <Name>
MolPort-046-632-193

> <i_m_Source_File_Index>
160343

> <i_lp_mmshare_version>
36015

> <PUBCHEM_EXT_DATASOURCE_URL>
https://www.molport.com

> <s_lp_Force_Field>
OPLS3

> <r_epik_Ionization_Penalty>
1.74467E-4

> <r_epik_State_Penalty>
0.0

> <IS_SC>
Yes

> <r_epik_Ionization_Penalty_Neutral>
1.74467E-4

> <s_m_Source_Path>
/home/mrgulotta/data_server/CADD/LIBRERIE/OTTIMIZZATE/MOLPORT/ALL_STOCK_COMPOUNDS_FILTERED_NEW

> <i_m_source_file_index>
160343

> <PUBCHEM_EXT_SUBSTANCE_URL>
https://www.molport.com/shop/molecule-link/MolPort-046-632-193

> <VERIFIED_AMOUNT_MG>
35

> <r_epik_Ionization_Penalty_Charging>
0.0

> <r_lp_Energy>
24.2475

> <QC_METHOD>
LCMS + NMR

> <QPhAR prediction>
6.890977096857658

> <i_epik_Tot_abs_Q>
0

> <i_epik_Tot_Q>
0

> <cdk:Title>
null

> <b_lp_Chiralities_Consistent>
1

> <s_m_entry_name>
iis-007-000-000--007-499-999_filtered.160343

> <i_f3d_flags>
0

> <PRICERANGE_5MG>
50 - 100

> <COMPOUND_STATE>
N/A

> <s_m_entry_id>
298022

> <Molecule_Name>
MolPort-046-632-193

> <Score>
0.9419791842617503

> <BEST_LEAD_TIME>
10

> <s_lp_Variant>
MolPort-046-632-193-1

> <s_m_Source_File>
iis-007-000-000--007-499-999_filtered.sdf

> <r_lp_tautomer_probability>
1.0

> <UNVERIFIED_AMOUNT_MG>
35.0

$$$$
MolPort-002-752-489
XX    ILIB07022204093D

 30 32  0  0  1  0              1 V2000
   -0.2516   -3.8613    4.6484 Cl  0  0  0  0  0
   -0.0509   -1.1533    6.2266 Cl  0  0  0  0  0
    0.4019   -1.3027   -3.7754 F   0  0  0  0  0
   -0.5054   -3.2578   -3.5430 F   0  0  0  0  0
    1.2119   -2.7080   -2.3281 F   0  0  0  0  0
   -2.0967   -1.1611   -2.1797 N   0  0  0  0  0
   -2.5996   -1.0732   -3.4463 N   0  0  0  0  0
   -2.7178   -0.6204    0.0795 N   0  0  0  0  0
   -0.5840   -2.3662    3.8643 C   0  0  0  0  0
   -0.4961   -1.1611    4.5645 C   0  0  0  0  0
   -2.9941   -0.6392   -1.2500 C   0  0  0  0  0
   -1.5693   -1.0942    0.4937 C   0  0  0  0  0
   -0.8513   -1.6914   -1.7925 C   0  0  0  0  0
   -3.7910   -0.4961   -3.3018 C   0  0  0  0  0
   -1.2007   -1.1021    1.9028 C   0  0  0  0  0
   -0.9314   -2.3330    2.5146 C   0  0  0  0  0
   -0.7671    0.0612    3.9326 C   0  0  0  0  0
   -4.0859   -0.2045   -1.9673 C   0  0  0  0  0
   -0.5627   -1.6729   -0.4800 C   0  0  0  0  0
   -1.1265    0.1313    2.5781 C   0  0  0  0  0
    0.0460   -2.2285   -2.8418 C   0  0  0  0  0
   -4.6016   -0.2497   -4.5000 C   0  0  0  0  0
   -0.9894   -3.2260    1.9653 H   0  0  0  0  0
   -0.7035    0.9580    4.4750 H   0  0  0  0  0
   -4.8988    0.2367   -1.4703 H   0  0  0  0  0
    0.3497   -2.0543   -0.1271 H   0  0  0  0  0
   -1.3342    1.0238    2.0655 H   0  0  0  0  0
   -5.3722    0.4249   -4.2686 H   0  0  0  0  0
   -3.9956    0.1568   -5.2550 H   0  0  0  0  0
   -5.0170   -1.1545   -4.8337 H   0  0  0  0  0
  1  9  1  0  0  0
  2 10  1  0  0  0
  3 21  1  0  0  0
  4 21  1  0  0  0
  5 21  1  0  0  0
  6  7  1  0  0  0
  6 11  1  0  0  0
  6 13  1  0  0  0
  7 14  2  0  0  0
  8 11  1  0  0  0
  8 12  2  0  0  0
  9 10  2  0  0  0
  9 16  1  0  0  0
 10 17  1  0  0  0
 11 18  2  0  0  0
 12 15  1  0  0  0
 12 19  1  0  0  0
 13 19  2  0  0  0
 13 21  1  0  0  0
 14 18  1  0  0  0
 14 22  1  0  0  0
 15 16  2  0  0  0
 15 20  1  0  0  0
 16 23  1  0  0  0
 17 20  2  0  0  0
 17 24  1  0  0  0
 18 25  1  0  0  0
 19 26  1  0  0  0
 20 27  1  0  0  0
 22 28  1  0  0  0
 22 29  1  0  0  0
 22 30  1  0  0  0
M  END
> <QPhAR in domain>
True

> <s_m_source_file>
iis-001-000-000--001-499-999_minus_1_wrong_filtered_optim.maegz

> <r_epik_Charging_Adjusted_Penalty>
0.0

> <PRICERANGE_1MG>
< 50

> <Name>
MolPort-002-752-489

> <i_m_Source_File_Index>
23076

> <i_lp_mmshare_version>
36015

> <PUBCHEM_EXT_DATASOURCE_URL>
https://www.molport.com

> <s_lp_Force_Field>
OPLS3

> <r_epik_Ionization_Penalty>
2.17179E-10

> <r_epik_State_Penalty>
0.0

> <IS_SC>
Yes

> <r_epik_Ionization_Penalty_Neutral>
2.17179E-10

> <s_m_Source_Path>
/home/mrgulotta/data_server/CADD/LIBRERIE/OTTIMIZZATE/MOLPORT/ALL_STOCK_COMPOUNDS_FILTERED_NEW

> <i_m_source_file_index>
23076

> <PUBCHEM_EXT_SUBSTANCE_URL>
https://www.molport.com/shop/molecule-link/MolPort-002-752-489

> <VERIFIED_AMOUNT_MG>
30

> <r_epik_Ionization_Penalty_Charging>
0.0

> <r_lp_Energy>
25.5815

> <QC_METHOD>
NMR

> <QPhAR prediction>
6.890539974560106

> <i_epik_Tot_abs_Q>
0

> <i_epik_Tot_Q>
0

> <cdk:Title>
null

> <b_lp_Chiralities_Consistent>
1

> <s_m_entry_name>
iis-001-000-000--001-499-999_minus_1_wrong_filtered.23076

> <i_f3d_flags>
0

> <PRICERANGE_5MG>
< 50

> <COMPOUND_STATE>
N/A

> <s_m_entry_id>
108825

> <Molecule_Name>
MolPort-002-752-489

> <Score>
0.9403164202270613

> <BEST_LEAD_TIME>
10

> <s_lp_Variant>
MolPort-002-752-489-1

> <s_m_Source_File>
iis-001-000-000--001-499-999_minus_1_wrong_filtered.sdf

> <r_lp_tautomer_probability>
1.0

> <UNVERIFIED_AMOUNT_MG>
30.0

$$$$
MolPort-001-648-156
XX    ILIB07022204093D

 30 32  0  0  1  0              1 V2000
   -2.3877   -2.7627    5.2363 Cl  0  0  0  0  0
    0.2214   -1.2334    6.0840 Cl  0  0  0  0  0
    1.1064   -1.5210   -3.0664 F   0  0  0  0  0
    0.2215   -3.4902   -2.8047 F   0  0  0  0  0
   -2.1963   -1.1338   -2.2236 N   0  0  0  0  0
   -2.7607   -1.0312   -3.4629 N   0  0  0  0  0
   -2.7100   -0.6282    0.0705 N   0  0  0  0  0
   -1.4727   -1.8853    4.0723 C   0  0  0  0  0
   -0.3125   -1.2036    4.4473 C   0  0  0  0  0
   -3.0498   -0.6301   -1.2441 C   0  0  0  0  0
   -1.5405   -1.1016    0.4220 C   0  0  0  0  0
   -0.9312   -1.6626   -1.9043 C   0  0  0  0  0
   -3.9463   -0.4631   -3.2529 C   0  0  0  0  0
   -1.1045   -1.1265    1.8115 C   0  0  0  0  0
   -1.8667   -1.8525    2.7363 C   0  0  0  0  0
    0.4375   -0.4849    3.5059 C   0  0  0  0  0
   -4.1777   -0.1919   -1.9014 C   0  0  0  0  0
   -0.5796   -1.6602   -0.6072 C   0  0  0  0  0
    0.0672   -0.4243    2.1543 C   0  0  0  0  0
   -0.0828   -2.1797   -3.0039 C   0  0  0  0  0
   -4.8164   -0.2048   -4.4062 C   0  0  0  0  0
   -2.7281   -2.3690    2.4301 H   0  0  0  0  0
    1.3035    0.0278    3.8054 H   0  0  0  0  0
   -4.9678    0.2374   -1.3593 H   0  0  0  0  0
    0.3511   -2.0407   -0.3045 H   0  0  0  0  0
    0.6007    0.0986    1.4165 H   0  0  0  0  0
   -0.6196   -2.0774   -3.9005 H   0  0  0  0  0
   -4.2611    0.2602   -5.1664 H   0  0  0  0  0
   -5.2047   -1.1131   -4.7621 H   0  0  0  0  0
   -5.6059    0.4233   -4.1153 H   0  0  0  0  0
  1  8  1  0  0  0
  2  9  1  0  0  0
  3 20  1  0  0  0
  4 20  1  0  0  0
  5  6  1  0  0  0
  5 10  1  0  0  0
  5 12  1  0  0  0
  6 13  2  0  0  0
  7 10  1  0  0  0
  7 11  2  0  0  0
  8  9  2  0  0  0
  8 15  1  0  0  0
  9 16  1  0  0  0
 10 17  2  0  0  0
 11 14  1  0  0  0
 11 18  1  0  0  0
 12 18  2  0  0  0
 12 20  1  0  0  0
 13 17  1  0  0  0
 13 21  1  0  0  0
 14 15  2  0  0  0
 14 19  1  0  0  0
 15 22  1  0  0  0
 16 19  2  0  0  0
 16 23  1  0  0  0
 17 24  1  0  0  0
 18 25  1  0  0  0
 19 26  1  0  0  0
 20 27  1  0  0  0
 21 28  1  0  0  0
 21 29  1  0  0  0
 21 30  1  0  0  0
M  END
> <QPhAR in domain>
True

> <s_m_source_file>
iis-000-500-000--000-999-999_filtered_optim.maegz

> <PRICERANGE_50MG>
100 - 250

> <r_epik_Charging_Adjusted_Penalty>
0.0

> <PRICERANGE_1MG>
< 50

> <Name>
MolPort-001-648-156

> <i_m_Source_File_Index>
9489

> <i_lp_mmshare_version>
36015

> <PUBCHEM_EXT_DATASOURCE_URL>
https://www.molport.com

> <s_lp_Force_Field>
OPLS3

> <r_epik_Ionization_Penalty>
1.15849E-9

> <r_epik_State_Penalty>
0.0

> <IS_SC>
Yes

> <r_epik_Ionization_Penalty_Neutral>
1.15849E-9

> <s_m_Source_Path>
/home/mrgulotta/data_server/CADD/LIBRERIE/OTTIMIZZATE/MOLPORT/ALL_STOCK_COMPOUNDS_FILTERED_NEW

> <i_m_source_file_index>
9489

> <PUBCHEM_EXT_SUBSTANCE_URL>
https://www.molport.com/shop/molecule-link/MolPort-001-648-156

> <VERIFIED_AMOUNT_MG>
50.0

> <r_epik_Ionization_Penalty_Charging>
0.0

> <r_lp_Energy>
25.8798

> <QC_METHOD>
NMR

> <QPhAR prediction>
6.890539974560106

> <i_epik_Tot_abs_Q>
0

> <i_epik_Tot_Q>
0

> <cdk:Title>
null

> <b_lp_Chiralities_Consistent>
1

> <s_m_entry_name>
iis-000-500-000--000-999-999_filtered.9489

> <i_f3d_flags>
0

> <PRICERANGE_5MG>
< 50

> <COMPOUND_STATE>
N/A

> <s_m_entry_id>
49440

> <Molecule_Name>
MolPort-001-648-156

> <Score>
0.9396455849447344

> <BEST_LEAD_TIME>
10

> <s_lp_Variant>
MolPort-001-648-156-1

> <s_m_Source_File>
iis-000-500-000--000-999-999_filtered.sdf

> <r_lp_tautomer_probability>
1.0

> <UNVERIFIED_AMOUNT_MG>
50.0

$$$$
MolPort-006-579-006
XX    ILIB07022204093D

 55 58  0  0  1  0              1 V2000
    0.6870   -2.5273   -3.6436 Br  0  0  0  0  0
   -2.3936   -2.3643   -3.1416 S   0  0  0  0  0
   -7.2637   -4.6836    2.7891 O   0  0  0  0  0
   -5.0312    1.6523    0.7532 O   0  0  0  0  0
   -5.0605   -4.5000    2.1367 O   0  0  0  0  0
   -2.7295   -0.0331   -0.1561 N   0  0  0  0  0
   -5.7559   -0.3893    1.3994 N   0  0  0  0  0
   -0.8147   -1.8706   -2.6660 C   0  0  0  0  0
   -3.0713   -1.4082   -1.8652 C   0  0  0  0  0
   -2.1123   -0.7644   -1.1401 C   0  0  0  0  0
   -4.0820   -0.2220   -0.2668 C   0  0  0  0  0
   -1.6772    0.0095    2.0283 C   0  0  0  0  0
   -2.2871   -0.7249    4.2461 C   0  0  0  0  0
   -0.7886   -1.0171   -1.5845 C   0  0  0  0  0
   -4.3438   -1.0737   -1.3203 C   0  0  0  0  0
   -2.5947   -0.0135    3.0869 C   0  0  0  0  0
   -0.4431   -0.6677    2.0576 C   0  0  0  0  0
   -1.0728   -1.4126    4.3086 C   0  0  0  0  0
   -0.1694   -1.3789    3.2363 C   0  0  0  0  0
   -6.2695   -4.0156    2.5391 C   0  0  0  0  0
   -4.9648    0.4283    0.6399 C   0  0  0  0  0
   -4.8340   -5.8887    1.9614 C   0  0  0  0  0
   -2.0254    0.7812    0.8079 C   0  0  0  0  0
   -5.7656   -1.8569    1.3027 C   0  0  0  0  0
   -6.6914    0.2134    2.3535 C   0  0  0  0  0
   -3.2373   -0.7639    5.3867 C   0  0  0  0  0
   -6.2520   -2.5254    2.5898 C   0  0  1  0  0
   -7.9570   -0.6199    2.4980 C   0  0  0  0  0
   -7.6504   -2.0332    2.9922 C   0  0  0  0  0
   -3.3965   -6.0762    1.5127 C   0  0  0  0  0
    0.1290   -0.6614   -1.2184 H   0  0  0  0  0
   -5.2176   -1.4736   -1.7434 H   0  0  0  0  0
   -3.5055    0.5023    3.0036 H   0  0  0  0  0
    0.2023   -0.6188    1.2308 H   0  0  0  0  0
   -0.8257   -1.9647    5.1669 H   0  0  0  0  0
    0.7334   -1.9061    3.3337 H   0  0  0  0  0
   -5.4927   -6.2616    1.2337 H   0  0  0  0  0
   -4.9981   -6.3876    2.8706 H   0  0  0  0  0
   -1.1368    1.1410    0.3796 H   0  0  0  0  0
   -2.6308    1.5912    1.0905 H   0  0  0  0  0
   -6.4047   -2.1521    0.5236 H   0  0  0  0  0
   -4.7931   -2.2012    1.1072 H   0  0  0  0  0
   -6.9615    1.1720    2.0209 H   0  0  0  0  0
   -6.2326    0.2860    3.2952 H   0  0  0  0  0
   -2.7092   -0.6448    6.2864 H   0  0  0  0  0
   -3.7376   -1.6870    5.3941 H   0  0  0  0  0
   -3.9370    0.0125    5.2861 H   0  0  0  0  0
   -5.6129   -2.2089    3.3605 H   0  0  0  0  0
   -8.4365   -0.6924    1.5667 H   0  0  0  0  0
   -8.6012   -0.1610    3.1886 H   0  0  0  0  0
   -7.7316   -2.0275    4.0390 H   0  0  0  0  0
   -8.3769   -2.6747    2.5883 H   0  0  0  0  0
   -2.8596   -6.5816    2.2602 H   0  0  0  0  0
   -2.9582   -5.1376    1.3409 H   0  0  0  0  0
   -3.3770   -6.6391    0.6265 H   0  0  0  0  0
  1  8  1  0  0  0
  2  8  1  0  0  0
  2  9  1  0  0  0
  3 20  2  0  0  0
  4 21  2  0  0  0
  5 20  1  0  0  0
  5 22  1  0  0  0
  6 10  1  0  0  0
  6 11  1  0  0  0
  6 23  1  0  0  0
  7 21  1  0  0  0
  7 24  1  0  0  0
  7 25  1  0  0  0
  8 14  2  0  0  0
  9 10  2  0  0  0
  9 15  1  0  0  0
 10 14  1  0  0  0
 11 15  2  0  0  0
 11 21  1  0  0  0
 12 16  1  0  0  0
 12 17  2  0  0  0
 12 23  1  0  0  0
 13 16  2  0  0  0
 13 18  1  0  0  0
 13 26  1  0  0  0
 14 31  1  0  0  0
 15 32  1  0  0  0
 16 33  1  0  0  0
 17 19  1  0  0  0
 17 34  1  0  0  0
 18 19  2  0  0  0
 18 35  1  0  0  0
 19 36  1  0  0  0
 20 27  1  0  0  0
 22 30  1  0  0  0
 22 37  1  0  0  0
 22 38  1  0  0  0
 23 39  1  0  0  0
 23 40  1  0  0  0
 24 27  1  0  0  0
 24 41  1  0  0  0
 24 42  1  0  0  0
 25 28  1  0  0  0
 25 43  1  0  0  0
 25 44  1  0  0  0
 26 45  1  0  0  0
 26 46  1  0  0  0
 26 47  1  0  0  0
 27 29  1  0  0  0
 27 48  1  0  0  0
 28 29  1  0  0  0
 28 49  1  0  0  0
 28 50  1  0  0  0
 29 51  1  0  0  0
 29 52  1  0  0  0
 30 53  1  0  0  0
 30 54  1  0  0  0
 30 55  1  0  0  0
M  END
> <QPhAR in domain>
True

> <s_m_source_file>
iis-002-500-000--002-999-999_filtered_optim.maegz

> <r_epik_Charging_Adjusted_Penalty>
0.0

> <PRICERANGE_1MG>
50 - 100

> <s_epik_Chemistry_Notes>
This compound has an ester and may undergo hydrolysis at high or low pH.

> <Name>
MolPort-006-579-006

> <i_m_Source_File_Index>
40516

> <i_lp_mmshare_version>
36015

> <PUBCHEM_EXT_DATASOURCE_URL>
https://www.molport.com

> <s_lp_Force_Field>
OPLS3

> <r_epik_Ionization_Penalty>
1.117E-10

> <r_epik_State_Penalty>
0.0

> <IS_SC>
Yes

> <r_epik_Ionization_Penalty_Neutral>
1.117E-10

> <s_m_Source_Path>
/home/mrgulotta/data_server/CADD/LIBRERIE/OTTIMIZZATE/MOLPORT/ALL_STOCK_COMPOUNDS_FILTERED_NEW

> <i_m_source_file_index>
40516

> <PUBCHEM_EXT_SUBSTANCE_URL>
https://www.molport.com/shop/molecule-link/MolPort-006-579-006

> <VERIFIED_AMOUNT_MG>
15

> <r_epik_Ionization_Penalty_Charging>
0.0

> <r_lp_Energy>
28.6194

> <QC_METHOD>
LCMS

> <QPhAR prediction>
6.879625527617598

> <i_epik_Tot_abs_Q>
0

> <i_epik_Tot_Q>
0

> <cdk:Title>
null

> <b_lp_Chiralities_Consistent>
1

> <s_m_entry_name>
iis-002-500-000--002-999-999_filtered.40516

> <i_f3d_flags>
0

> <PRICERANGE_5MG>
50 - 100

> <COMPOUND_STATE>
OIL

> <s_m_entry_id>
153309

> <Molecule_Name>
MolPort-006-579-006

> <Score>
0.9388670449611632

> <BEST_LEAD_TIME>
10

> <s_lp_Variant>
MolPort-006-579-006-1

> <s_m_Source_File>
iis-002-500-000--002-999-999_filtered.sdf

> <r_lp_tautomer_probability>
1.0

> <UNVERIFIED_AMOUNT_MG>
15.0

$$$$
MolPort-005-578-073
XX    ILIB07022204093D

 52 56  0  0  1  0              1 V2000
   -4.8438   -1.2173   -3.4463 S   0  0  0  0  0
   -0.7537    0.6042    6.0547 S   0  0  0  0  0
   -0.7205   -1.0825    0.0404 S   0  0  0  0  0
   -0.1598   -0.4514    6.8516 O   0  0  0  0  0
   -0.2070    1.9468    6.0879 O   0  0  0  0  0
   -3.4561    2.7480    8.0156 O   0  0  0  0  0
   -5.1973   -0.5686   -0.9009 N   0  0  0  0  0
   -3.2959   -0.5330    0.5881 N   0  0  0  0  0
   -0.7646    0.6448    2.0342 N   0  0  0  0  0
   -2.4307    0.6736    6.3809 N   0  0  0  0  0
   -4.3203   -0.9358   -1.8535 C   0  0  0  0  0
   -3.2637   -1.6157   -3.9775 C   0  0  0  0  0
   -2.4219   -0.9053   -0.3931 C   0  0  0  0  0
   -0.7410   -0.6777    1.7578 C   0  0  0  0  0
   -0.7625    0.0731    4.3672 C   0  0  0  0  0
   -4.5996   -0.3907    0.2841 C   0  0  0  0  0
   -0.7886    1.0156    3.3379 C   0  0  0  0  0
   -2.9570   -1.1216   -1.6880 C   0  0  0  0  0
   -2.3594   -1.5127   -2.9346 C   0  0  0  0  0
   -0.9617   -1.7812   -3.0918 C   0  0  0  0  0
   -0.7297   -1.6724    2.7188 C   0  0  0  0  0
   -0.7432   -1.2930    4.0586 C   0  0  0  0  0
   -0.5789   -2.9736   -3.7197 C   0  0  0  0  0
   -0.0428   -0.8279   -2.6133 C   0  0  0  0  0
    0.7764   -3.2607   -3.8779 C   0  0  0  0  0
    1.3115   -1.1460   -2.7949 C   0  0  0  0  0
    1.7163   -2.3350   -3.4189 C   0  0  0  0  0
   -2.6943    1.6880    8.5938 C   0  0  0  0  0
   -3.0068    3.0352    6.6895 C   0  0  0  0  0
   -2.8633    0.4100    7.7871 C   0  0  0  0  0
   -3.1914    1.8188    5.7930 C   0  0  0  0  0
   -5.4844    0.0164    1.4062 C   0  0  0  0  0
   -3.0995   -1.8894   -4.9778 H   0  0  0  0  0
   -0.8278    2.0332    3.5937 H   0  0  0  0  0
   -0.7114   -2.6816    2.4296 H   0  0  0  0  0
   -0.7392   -2.0055    4.8299 H   0  0  0  0  0
   -1.3102   -3.6425   -4.0667 H   0  0  0  0  0
   -0.3890    0.0516   -2.1561 H   0  0  0  0  0
    1.0731   -4.1584   -4.3346 H   0  0  0  0  0
    2.0555   -0.4853   -2.4596 H   0  0  0  0  0
    2.7420   -2.5247   -3.5390 H   0  0  0  0  0
   -1.6783    1.9528    8.6048 H   0  0  0  0  0
   -3.0221    1.5171    9.5766 H   0  0  0  0  0
   -3.5611    3.8364    6.2980 H   0  0  0  0  0
   -1.9890    3.2921    6.7128 H   0  0  0  0  0
   -3.8705    0.1135    7.7937 H   0  0  0  0  0
   -2.2711   -0.3534    8.1982 H   0  0  0  0  0
   -2.8253    2.0249    4.8307 H   0  0  0  0  0
   -4.2096    1.5692    5.7341 H   0  0  0  0  0
   -6.3192    0.5273    1.0260 H   0  0  0  0  0
   -5.8040   -0.8373    1.9274 H   0  0  0  0  0
   -4.9553    0.6468    2.0582 H   0  0  0  0  0
  1 11  1  0  0  0
  1 12  1  0  0  0
  2  4  2  0  0  0
  2  5  2  0  0  0
  2 10  1  0  0  0
  2 15  1  0  0  0
  3 13  1  0  0  0
  3 14  1  0  0  0
  6 28  1  0  0  0
  6 29  1  0  0  0
  7 11  2  0  0  0
  7 16  1  0  0  0
  8 13  1  0  0  0
  8 16  2  0  0  0
  9 14  2  0  0  0
  9 17  1  0  0  0
 10 30  1  0  0  0
 10 31  1  0  0  0
 11 18  1  0  0  0
 12 19  2  0  0  0
 12 33  1  0  0  0
 13 18  2  0  0  0
 14 21  1  0  0  0
 15 17  2  0  0  0
 15 22  1  0  0  0
 16 32  1  0  0  0
 17 34  1  0  0  0
 18 19  1  0  0  0
 19 20  1  0  0  0
 20 23  2  0  0  0
 20 24  1  0  0  0
 21 22  2  0  0  0
 21 35  1  0  0  0
 22 36  1  0  0  0
 23 25  1  0  0  0
 23 37  1  0  0  0
 24 26  2  0  0  0
 24 38  1  0  0  0
 25 27  2  0  0  0
 25 39  1  0  0  0
 26 27  1  0  0  0
 26 40  1  0  0  0
 27 41  1  0  0  0
 28 30  1  0  0  0
 28 42  1  0  0  0
 28 43  1  0  0  0
 29 31  1  0  0  0
 29 44  1  0  0  0
 29 45  1  0  0  0
 30 46  1  0  0  0
 30 47  1  0  0  0
 31 48  1  0  0  0
 31 49  1  0  0  0
 32 50  1  0  0  0
 32 51  1  0  0  0
 32 52  1  0  0  0
M  END
> <QPhAR in domain>
True

> <s_m_source_file>
iis-002-500-000--002-999-999_filtered_optim.maegz

> <PRICERANGE_50MG>
100 - 250

> <r_epik_Charging_Adjusted_Penalty>
0.0

> <PRICERANGE_1MG>
50 - 100

> <Name>
MolPort-005-578-073

> <i_m_Source_File_Index>
1480

> <i_lp_mmshare_version>
36015

> <PUBCHEM_EXT_DATASOURCE_URL>
https://www.molport.com

> <s_lp_Force_Field>
OPLS3

> <r_epik_Ionization_Penalty>
7.89263E-6

> <r_epik_State_Penalty>
0.0

> <IS_SC>
Yes

> <r_epik_Ionization_Penalty_Neutral>
7.89263E-6

> <s_m_Source_Path>
/home/mrgulotta/data_server/CADD/LIBRERIE/OTTIMIZZATE/MOLPORT/ALL_STOCK_COMPOUNDS_FILTERED_NEW

> <i_m_source_file_index>
1480

> <PUBCHEM_EXT_SUBSTANCE_URL>
https://www.molport.com/shop/molecule-link/MolPort-005-578-073

> <VERIFIED_AMOUNT_MG>
200

> <r_epik_Ionization_Penalty_Charging>
0.0

> <r_lp_Energy>
40.5075

> <QC_METHOD>
LCMS

> <QPhAR prediction>
6.87477455714122

> <i_epik_Tot_abs_Q>
0

> <i_epik_Tot_Q>
0

> <cdk:Title>
null

> <b_lp_Chiralities_Consistent>
1

> <s_m_entry_name>
iis-002-500-000--002-999-999_filtered.1480

> <i_f3d_flags>
0

> <PRICERANGE_5MG>
50 - 100

> <COMPOUND_STATE>
SOLID

> <s_m_entry_id>
114273

> <Molecule_Name>
MolPort-005-578-073

> <Score>
0.9251309030537757

> <BEST_LEAD_TIME>
10

> <s_lp_Variant>
MolPort-005-578-073-1

> <s_m_Source_File>
iis-002-500-000--002-999-999_filtered.sdf

> <r_lp_tautomer_probability>
1.0

> <UNVERIFIED_AMOUNT_MG>
200.0

$$$$
MolPort-005-561-857
XX    ILIB07022204093D

 52 56  0  0  1  0              1 V2000
   -4.8477   -1.2056   -3.4453 S   0  0  0  0  0
   -0.7461    0.6184    6.0508 S   0  0  0  0  0
   -0.7251   -1.0977    0.0445 S   0  0  0  0  0
   -0.1641   -0.4397    6.8535 O   0  0  0  0  0
   -0.1850    1.9551    6.0781 O   0  0  0  0  0
   -3.4277    2.8008    7.9980 O   0  0  0  0  0
   -5.1953   -0.5408   -0.9038 N   0  0  0  0  0
   -3.2949   -0.5181    0.5872 N   0  0  0  0  0
   -0.7527    0.6394    2.0303 N   0  0  0  0  0
   -2.4229    0.7073    6.3750 N   0  0  0  0  0
   -4.3223   -0.9219   -1.8535 C   0  0  0  0  0
   -3.2695   -1.6230   -3.9736 C   0  0  0  0  0
   -2.4238   -0.9048   -0.3915 C   0  0  0  0  0
   -0.7429   -0.6846    1.7603 C   0  0  0  0  0
   -0.7588    0.0793    4.3652 C   0  0  0  0  0
   -4.5957   -0.3635    0.2809 C   0  0  0  0  0
   -0.7742    1.0171    3.3320 C   0  0  0  0  0
   -2.9600   -1.1216   -1.6860 C   0  0  0  0  0
   -2.3652   -1.5244   -2.9307 C   0  0  0  0  0
   -0.9707   -1.8091   -3.0850 C   0  0  0  0  0
    1.7168   -2.3027   -3.4297 C   0  0  0  0  0
   -0.7432   -1.6743    2.7256 C   0  0  0  0  0
   -0.7539   -1.2881    4.0645 C   0  0  0  0  0
   -0.3263   -2.6758   -2.1992 C   0  0  0  0  0
   -0.2704   -1.2026   -4.1367 C   0  0  0  0  0
    1.0361   -2.9170   -2.3691 C   0  0  0  0  0
    1.0986   -1.4282   -4.3438 C   0  0  0  0  0
   -2.6777    1.7354    8.5820 C   0  0  0  0  0
   -2.9736    3.0762    6.6699 C   0  0  0  0  0
   -2.8594    0.4551    7.7812 C   0  0  0  0  0
   -3.1699    1.8574    5.7812 C   0  0  0  0  0
    3.1660   -2.5820   -3.5947 C   0  0  0  0  0
   -3.1071   -1.9030   -4.9725 H   0  0  0  0  0
   -5.1594   -0.0661    1.1153 H   0  0  0  0  0
   -0.8032    2.0364    3.5825 H   0  0  0  0  0
   -0.7355   -2.6850    2.4412 H   0  0  0  0  0
   -0.7583   -1.9962    4.8398 H   0  0  0  0  0
   -0.8676   -3.1316   -1.4235 H   0  0  0  0  0
   -0.7705   -0.5580   -4.7976 H   0  0  0  0  0
    1.5525   -3.5521   -1.7115 H   0  0  0  0  0
    1.6608   -0.9934   -5.1167 H   0  0  0  0  0
   -1.6589    1.9894    8.5928 H   0  0  0  0  0
   -3.0082    1.5726    9.5652 H   0  0  0  0  0
   -1.9532    3.3227    6.6930 H   0  0  0  0  0
   -3.5192    3.8809    6.2733 H   0  0  0  0  0
   -2.2756   -0.3125    8.1966 H   0  0  0  0  0
   -3.8697    0.1692    7.7881 H   0  0  0  0  0
   -2.8009    2.0547    4.8182 H   0  0  0  0  0
   -4.1908    1.6189    5.7228 H   0  0  0  0  0
    3.6915   -1.6756   -3.6634 H   0  0  0  0  0
    3.5140   -3.1265   -2.7671 H   0  0  0  0  0
    3.3172   -3.1414   -4.4703 H   0  0  0  0  0
  1 11  1  0  0  0
  1 12  1  0  0  0
  2  4  2  0  0  0
  2  5  2  0  0  0
  2 10  1  0  0  0
  2 15  1  0  0  0
  3 13  1  0  0  0
  3 14  1  0  0  0
  6 28  1  0  0  0
  6 29  1  0  0  0
  7 11  2  0  0  0
  7 16  1  0  0  0
  8 13  1  0  0  0
  8 16  2  0  0  0
  9 14  2  0  0  0
  9 17  1  0  0  0
 10 30  1  0  0  0
 10 31  1  0  0  0
 11 18  1  0  0  0
 12 19  2  0  0  0
 12 33  1  0  0  0
 13 18  2  0  0  0
 14 22  1  0  0  0
 15 17  2  0  0  0
 15 23  1  0  0  0
 16 34  1  0  0  0
 17 35  1  0  0  0
 18 19  1  0  0  0
 19 20  1  0  0  0
 20 24  2  0  0  0
 20 25  1  0  0  0
 21 26  2  0  0  0
 21 27  1  0  0  0
 21 32  1  0  0  0
 22 23  2  0  0  0
 22 36  1  0  0  0
 23 37  1  0  0  0
 24 26  1  0  0  0
 24 38  1  0  0  0
 25 27  2  0  0  0
 25 39  1  0  0  0
 26 40  1  0  0  0
 27 41  1  0  0  0
 28 30  1  0  0  0
 28 42  1  0  0  0
 28 43  1  0  0  0
 29 31  1  0  0  0
 29 44  1  0  0  0
 29 45  1  0  0  0
 30 46  1  0  0  0
 30 47  1  0  0  0
 31 48  1  0  0  0
 31 49  1  0  0  0
 32 50  1  0  0  0
 32 51  1  0  0  0
 32 52  1  0  0  0
M  END
> <QPhAR in domain>
True

> <s_m_source_file>
iis-002-000-000--002-499-999_filtered_optim.maegz

> <PRICERANGE_50MG>
100 - 250

> <r_epik_Charging_Adjusted_Penalty>
0.0

> <PRICERANGE_1MG>
50 - 100

> <Name>
MolPort-005-561-857

> <i_m_Source_File_Index>
73116

> <i_lp_mmshare_version>
36015

> <PUBCHEM_EXT_DATASOURCE_URL>
https://www.molport.com

> <s_lp_Force_Field>
OPLS3

> <r_epik_Ionization_Penalty>
5.60207E-6

> <r_epik_State_Penalty>
0.0

> <IS_SC>
Yes

> <r_epik_Ionization_Penalty_Neutral>
5.60207E-6

> <s_m_Source_Path>
/home/mrgulotta/data_server/CADD/LIBRERIE/OTTIMIZZATE/MOLPORT/ALL_STOCK_COMPOUNDS_FILTERED_NEW

> <i_m_source_file_index>
73116

> <PUBCHEM_EXT_SUBSTANCE_URL>
https://www.molport.com/shop/molecule-link/MolPort-005-561-857

> <VERIFIED_AMOUNT_MG>
600

> <r_epik_Ionization_Penalty_Charging>
0.0

> <r_lp_Energy>
42.3003

> <QC_METHOD>
LCMS

> <QPhAR prediction>
6.87477455714122

> <i_epik_Tot_abs_Q>
0

> <i_epik_Tot_Q>
0

> <cdk:Title>
null

> <b_lp_Chiralities_Consistent>
1

> <s_m_entry_name>
iis-002-000-000--002-499-999_filtered.73116

> <i_f3d_flags>
0

> <PRICERANGE_5MG>
50 - 100

> <COMPOUND_STATE>
SOLID

> <s_m_entry_id>
112713

> <Molecule_Name>
MolPort-005-561-857

> <Score>
0.9252112885981708

> <BEST_LEAD_TIME>
10

> <s_lp_Variant>
MolPort-005-561-857-1

> <s_m_Source_File>
iis-002-000-000--002-499-999_filtered.sdf

> <r_lp_tautomer_probability>
1.0

> <UNVERIFIED_AMOUNT_MG>
600.0

$$$$
MolPort-008-359-863
XX    ILIB07022204093D

 55 58  0  0  1  0              1 V2000
   -0.9927   -4.5957   -1.9204 O   0  0  0  0  0
   -1.5991   -0.5083    4.3965 N   0  0  0  0  0
    0.5249    0.1308    3.5635 N   0  0  0  0  0
   -2.6846   -0.4380    0.3047 N   0  0  0  0  0
    2.0703   -0.2937   -6.7285 N   0  0  0  0  0
    0.2325   -2.9482   -2.8672 N   0  0  0  0  0
   -0.3457   -0.0427    4.5840 C   0  0  0  0  0
   -3.1807   -0.7742   -0.9006 C   0  0  0  0  0
   -1.5762   -1.0728    0.7473 C   0  0  0  0  0
   -1.9521   -0.8157    3.1357 C   0  0  0  0  0
    0.1428   -0.1620    2.2920 C   0  0  0  0  0
   -2.5771   -1.7588   -1.7104 C   0  0  0  0  0
   -1.1206   -0.6667    2.0469 C   0  0  0  0  0
   -4.3281   -0.1334   -1.3691 C   0  0  0  0  0
   -1.4102   -2.3750   -1.2173 C   0  0  0  0  0
   -4.8887   -0.4403   -2.6133 C   0  0  0  0  0
   -0.9067   -2.0459    0.0369 C   0  0  0  0  0
   -3.1484   -2.0732   -2.9590 C   0  0  0  0  0
   -4.2949   -1.4209   -3.4023 C   0  0  0  0  0
   -0.7319   -3.3955   -2.0049 C   0  0  0  0  0
    2.1738   -1.0425   -5.8496 C   0  0  0  0  0
    0.5381   -1.5254   -2.9648 C   0  0  0  0  0
    0.9724   -3.8848   -3.7051 C   0  0  0  0  0
    0.0945    0.2953    5.9629 C   0  0  0  0  0
   -4.9473    0.8970   -0.4965 C   0  0  0  0  0
   -6.1113    0.2649   -3.0781 C   0  0  0  0  0
    2.3037   -1.9854   -4.7422 C   0  0  0  0  0
    1.9839   -1.2988   -3.4023 C   0  0  0  0  0
    1.4233   -3.2207   -5.0020 C   0  0  0  0  0
    0.7112   -0.8936    6.6270 C   0  0  0  0  0
   -2.9112   -1.1938    2.9364 H   0  0  0  0  0
    0.8077   -0.0048    1.4946 H   0  0  0  0  0
   -0.0556   -2.5037    0.4475 H   0  0  0  0  0
   -2.7090   -2.8075   -3.5674 H   0  0  0  0  0
   -4.7119   -1.6694   -4.3333 H   0  0  0  0  0
   -0.0988   -1.0782   -3.6697 H   0  0  0  0  0
    0.3970   -1.0721   -2.0283 H   0  0  0  0  0
    0.3584   -4.7030   -3.9419 H   0  0  0  0  0
    1.8212   -4.2225   -3.1873 H   0  0  0  0  0
    0.8040    1.0684    5.9242 H   0  0  0  0  0
   -0.7335    0.6081    6.5278 H   0  0  0  0  0
   -4.9979    0.5370    0.4885 H   0  0  0  0  0
   -5.9157    1.1114   -0.8410 H   0  0  0  0  0
   -4.3659    1.7710   -0.5202 H   0  0  0  0  0
   -6.9535   -0.1447   -2.6033 H   0  0  0  0  0
   -6.0380    1.2853   -2.8417 H   0  0  0  0  0
   -6.2063    0.1524   -4.1177 H   0  0  0  0  0
    3.2867   -2.3529   -4.7089 H   0  0  0  0  0
    2.1505   -0.2715   -3.5415 H   0  0  0  0  0
    2.6345   -1.6618   -2.6623 H   0  0  0  0  0
    0.5813   -2.9137   -5.5491 H   0  0  0  0  0
    1.9797   -3.9057   -5.5709 H   0  0  0  0  0
    0.0316   -1.3015    7.3157 H   0  0  0  0  0
    0.9502   -1.6146    5.9021 H   0  0  0  0  0
    1.5849   -0.5997    7.1297 H   0  0  0  0  0
  1 20  2  0  0  0
  2  7  2  0  0  0
  2 10  1  0  0  0
  3  7  1  0  0  0
  3 11  2  0  0  0
  4  8  2  0  0  0
  4  9  1  0  0  0
  5 21  3  0  0  0
  6 20  1  0  0  0
  6 22  1  0  0  0
  6 23  1  0  0  0
  7 24  1  0  0  0
  8 12  1  0  0  0
  8 14  1  0  0  0
  9 13  1  0  0  0
  9 17  2  0  0  0
 10 13  2  0  0  0
 10 31  1  0  0  0
 11 13  1  0  0  0
 11 32  1  0  0  0
 12 15  2  0  0  0
 12 18  1  0  0  0
 14 16  2  0  0  0
 14 25  1  0  0  0
 15 17  1  0  0  0
 15 20  1  0  0  0
 16 19  1  0  0  0
 16 26  1  0  0  0
 17 33  1  0  0  0
 18 19  2  0  0  0
 18 34  1  0  0  0
 19 35  1  0  0  0
 21 27  1  0  0  0
 22 28  1  0  0  0
 22 36  1  0  0  0
 22 37  1  0  0  0
 23 29  1  0  0  0
 23 38  1  0  0  0
 23 39  1  0  0  0
 24 30  1  0  0  0
 24 40  1  0  0  0
 24 41  1  0  0  0
 25 42  1  0  0  0
 25 43  1  0  0  0
 25 44  1  0  0  0
 26 45  1  0  0  0
 26 46  1  0  0  0
 26 47  1  0  0  0
 27 28  1  0  0  0
 27 29  1  0  0  0
 27 48  1  0  0  0
 28 49  1  0  0  0
 28 50  1  0  0  0
 29 51  1  0  0  0
 29 52  1  0  0  0
 30 53  1  0  0  0
 30 54  1  0  0  0
 30 55  1  0  0  0
M  END
> <QPhAR in domain>
True

> <s_m_source_file>
iis-003-500-000--003-999-999_filtered_optim.maegz

> <r_epik_Charging_Adjusted_Penalty>
0.0

> <PRICERANGE_1MG>
< 50

> <Name>
MolPort-008-359-863

> <i_m_Source_File_Index>
3321

> <i_lp_mmshare_version>
36015

> <PUBCHEM_EXT_DATASOURCE_URL>
https://www.molport.com

> <s_lp_Force_Field>
OPLS3

> <r_epik_Ionization_Penalty>
4.3387E-7

> <r_epik_State_Penalty>
0.0

> <IS_SC>
Yes

> <r_epik_Ionization_Penalty_Neutral>
4.3387E-7

> <s_m_Source_Path>
/home/mrgulotta/data_server/CADD/LIBRERIE/OTTIMIZZATE/MOLPORT/ALL_STOCK_COMPOUNDS_FILTERED_NEW

> <i_m_source_file_index>
3321

> <PUBCHEM_EXT_SUBSTANCE_URL>
https://www.molport.com/shop/molecule-link/MolPort-008-359-863

> <VERIFIED_AMOUNT_MG>
1

> <r_epik_Ionization_Penalty_Charging>
0.0

> <r_lp_Energy>
55.2123

> <QC_METHOD>
LCMS

> <QPhAR prediction>
6.8641804805489866

> <i_epik_Tot_abs_Q>
0

> <i_epik_Tot_Q>
0

> <cdk:Title>
null

> <b_lp_Chiralities_Consistent>
1

> <s_m_entry_name>
iis-003-500-000--003-999-999_filtered.3321

> <i_f3d_flags>
0

> <COMPOUND_STATE>
FILM

> <s_m_entry_id>
3321

> <Score>
0.9475978227431933

> <Molecule_Name>
MolPort-008-359-863

> <BEST_LEAD_TIME>
12

> <s_lp_Variant>
MolPort-008-359-863-1

> <s_m_Source_File>
iis-003-500-000--003-999-999_filtered.sdf

> <r_lp_tautomer_probability>
1.0

> <UNVERIFIED_AMOUNT_MG>
1.0

$$$$
MolPort-005-850-197
XX    ILIB07022204093D

 59 62  0  0  1  0              1 V2000
   -6.7969   -0.9441   -1.0195 O   0  0  0  0  0
   -1.9727   -1.2959   -2.6475 N   0  0  0  0  0
   -2.9072   -1.2217   -3.6104 N   0  0  0  0  0
   -1.7417   -1.0566   -0.2612 N   0  0  0  0  0
   -6.4160    0.9229    0.2806 N   0  0  0  0  0
   -2.4600   -1.0464   -1.3955 C   0  0  0  0  0
   -2.4785   -0.7690    0.8262 C   0  0  0  0  0
   -4.0176   -0.9150   -2.9375 C   0  0  0  0  0
   -0.6694   -1.6050   -3.0107 C   0  0  0  0  0
   -3.8203   -0.7822   -1.5396 C   0  0  0  0  0
   -1.7295   -0.7952    2.0508 C   0  0  0  0  0
   -4.5898   -0.4886   -0.3842 C   0  0  0  0  0
    1.9321   -2.1914   -3.6982 C   0  0  0  0  0
   -3.8428   -0.4795    0.8240 C   0  0  0  0  0
    0.3784   -0.9275   -2.3740 C   0  0  0  0  0
   -0.4695   -2.5898   -3.9971 C   0  0  0  0  0
   -1.6611    0.3772    2.8154 C   0  0  0  0  0
   -1.1074   -2.0010    2.4238 C   0  0  0  0  0
    1.6958   -1.2153   -2.7275 C   0  0  0  0  0
    0.8684   -2.8604   -4.3223 C   0  0  0  0  0
   -0.9329    0.3782    4.0039 C   0  0  0  0  0
   -0.3899   -1.9663    3.6299 C   0  0  0  0  0
   -0.3065   -0.8030    4.4082 C   0  0  0  0  0
   -6.0176   -0.2032   -0.4238 C   0  0  0  0  0
   -7.7930    1.3228    0.3739 C   0  0  0  0  0
   -5.2559   -0.7673   -3.7148 C   0  0  0  0  0
    3.3232   -2.5381   -4.0879 C   0  0  0  0  0
   -8.4062    1.6094   -1.0215 C   0  0  0  0  0
   -8.6094    0.2158    1.0659 C   0  0  0  0  0
   -7.8672    2.5830    1.2573 C   0  0  0  0  0
   -9.8711    2.0322   -1.0088 C   0  0  0  0  0
   -5.7283    1.4940    0.7508 H   0  0  0  0  0
   -4.3323   -0.2505    1.7242 H   0  0  0  0  0
    0.1683   -0.2096   -1.6371 H   0  0  0  0  0
   -1.2947   -3.0676   -4.4367 H   0  0  0  0  0
   -2.1559    1.2448    2.4915 H   0  0  0  0  0
   -1.1979   -2.8496    1.8121 H   0  0  0  0  0
    2.5025   -0.7144   -2.2794 H   0  0  0  0  0
    1.0627   -3.5866   -5.0553 H   0  0  0  0  0
   -0.8633    1.2557    4.5762 H   0  0  0  0  0
    0.1036   -2.8276    3.9722 H   0  0  0  0  0
    0.2365   -0.8284    5.3065 H   0  0  0  0  0
   -5.4979   -1.6844   -4.1652 H   0  0  0  0  0
   -5.1180   -0.0382   -4.4577 H   0  0  0  0  0
   -6.0366   -0.4738   -3.0770 H   0  0  0  0  0
    3.8694   -1.6573   -4.2563 H   0  0  0  0  0
    3.7758   -3.0886   -3.3168 H   0  0  0  0  0
    3.3076   -3.1135   -4.9661 H   0  0  0  0  0
   -7.8735    2.3866   -1.4850 H   0  0  0  0  0
   -8.3487    0.7441   -1.6135 H   0  0  0  0  0
   -9.6332    0.4352    0.9877 H   0  0  0  0  0
   -8.3392    0.1631    2.0792 H   0  0  0  0  0
   -8.4125   -0.7057    0.6027 H   0  0  0  0  0
   -8.7821    3.0716    1.0939 H   0  0  0  0  0
   -7.7934    2.3070    2.2677 H   0  0  0  0  0
   -7.0767    3.2292    1.0123 H   0  0  0  0  0
  -10.4820    1.1785   -1.0316 H   0  0  0  0  0
  -10.0707    2.6280   -1.8500 H   0  0  0  0  0
  -10.0694    2.5813   -0.1360 H   0  0  0  0  0
  1 24  2  0  0  0
  2  3  1  0  0  0
  2  6  1  0  0  0
  2  9  1  0  0  0
  3  8  2  0  0  0
  4  6  2  0  0  0
  4  7  1  0  0  0
  5 24  1  0  0  0
  5 25  1  0  0  0
  5 32  1  0  0  0
  6 10  1  0  0  0
  7 11  1  0  0  0
  7 14  2  0  0  0
  8 10  1  0  0  0
  8 26  1  0  0  0
  9 15  2  0  0  0
  9 16  1  0  0  0
 10 12  2  0  0  0
 11 17  2  0  0  0
 11 18  1  0  0  0
 12 14  1  0  0  0
 12 24  1  0  0  0
 13 19  2  0  0  0
 13 20  1  0  0  0
 13 27  1  0  0  0
 14 33  1  0  0  0
 15 19  1  0  0  0
 15 34  1  0  0  0
 16 20  2  0  0  0
 16 35  1  0  0  0
 17 21  1  0  0  0
 17 36  1  0  0  0
 18 22  2  0  0  0
 18 37  1  0  0  0
 19 38  1  0  0  0
 20 39  1  0  0  0
 21 23  2  0  0  0
 21 40  1  0  0  0
 22 23  1  0  0  0
 22 41  1  0  0  0
 23 42  1  0  0  0
 25 28  1  0  0  0
 25 29  1  0  0  0
 25 30  1  0  0  0
 26 43  1  0  0  0
 26 44  1  0  0  0
 26 45  1  0  0  0
 27 46  1  0  0  0
 27 47  1  0  0  0
 27 48  1  0  0  0
 28 31  1  0  0  0
 28 49  1  0  0  0
 28 50  1  0  0  0
 29 51  1  0  0  0
 29 52  1  0  0  0
 29 53  1  0  0  0
 30 54  1  0  0  0
 30 55  1  0  0  0
 30 56  1  0  0  0
 31 57  1  0  0  0
 31 58  1  0  0  0
 31 59  1  0  0  0
M  END
> <QPhAR in domain>
True

> <s_m_source_file>
iis-002-500-000--002-999-999_filtered_optim.maegz

> <r_epik_Charging_Adjusted_Penalty>
0.0

> <PRICERANGE_1MG>
50 - 100

> <Name>
MolPort-005-850-197

> <i_m_Source_File_Index>
21721

> <i_lp_mmshare_version>
36015

> <PUBCHEM_EXT_DATASOURCE_URL>
https://www.molport.com

> <s_lp_Force_Field>
OPLS3

> <r_epik_Ionization_Penalty>
7.88642E-5

> <r_epik_State_Penalty>
0.0

> <IS_SC>
Yes

> <r_epik_Ionization_Penalty_Neutral>
7.88642E-5

> <s_m_Source_Path>
/home/mrgulotta/data_server/CADD/LIBRERIE/OTTIMIZZATE/MOLPORT/ALL_STOCK_COMPOUNDS_FILTERED_NEW

> <i_m_source_file_index>
21721

> <PUBCHEM_EXT_SUBSTANCE_URL>
https://www.molport.com/shop/molecule-link/MolPort-005-850-197

> <VERIFIED_AMOUNT_MG>
20

> <r_epik_Ionization_Penalty_Charging>
0.0

> <r_lp_Energy>
41.8219

> <QC_METHOD>
NMR

> <QPhAR prediction>
6.861675886183384

> <i_epik_Tot_abs_Q>
0

> <i_epik_Tot_Q>
0

> <cdk:Title>
null

> <b_lp_Chiralities_Consistent>
1

> <s_m_entry_name>
iis-002-500-000--002-999-999_filtered.21721

> <i_f3d_flags>
0

> <PRICERANGE_5MG>
50 - 100

> <COMPOUND_STATE>
SOLID

> <s_m_entry_id>
134514

> <Molecule_Name>
MolPort-005-850-197

> <Score>
0.9390445196534479

> <BEST_LEAD_TIME>
10

> <s_lp_Variant>
MolPort-005-850-197-1

> <s_m_Source_File>
iis-002-500-000--002-999-999_filtered.sdf

> <r_lp_tautomer_probability>
1.0

> <UNVERIFIED_AMOUNT_MG>
20.0

$$$$
MolPort-001-648-316
XX    ILIB07022204093D

 35 38  0  0  1  0              1 V2000
   -0.1026   -1.6074   -4.0527 F   0  0  0  0  0
   -0.1561   -3.5547   -3.1006 F   0  0  0  0  0
    1.3589   -2.1055   -2.5225 F   0  0  0  0  0
   -2.0957   -1.1611   -2.1807 N   0  0  0  0  0
   -2.6016   -1.0684   -3.4463 N   0  0  0  0  0
   -0.1713   -1.1514    5.9141 N   0  0  0  0  0
   -2.7109   -0.6262    0.0816 N   0  0  0  0  0
    1.0967   -0.9971    7.7520 N   0  0  0  0  0
   -6.2031    0.9114   -0.9971 N   0  0  0  0  0
   -2.9902   -0.6404   -1.2471 C   0  0  0  0  0
    1.0742   -0.8926    6.4414 C   0  0  0  0  0
   -1.5635   -1.1040    0.4921 C   0  0  0  0  0
   -0.8508   -1.6953   -1.7974 C   0  0  0  0  0
   -3.7910   -0.4893   -3.2979 C   0  0  0  0  0
   -0.9839   -1.4424    6.9863 C   0  0  0  0  0
   -0.1810   -1.3384    8.0977 C   0  0  0  0  0
   -0.5320   -1.1255    4.5742 C   0  0  0  0  0
   -1.1924   -1.1167    1.9009 C   0  0  0  0  0
   -4.0820   -0.2013   -1.9609 C   0  0  0  0  0
   -0.5598   -1.6812   -0.4854 C   0  0  0  0  0
   -1.7642   -0.5938    4.1855 C   0  0  0  0  0
    0.3615   -1.6416    3.6240 C   0  0  0  0  0
   -2.1006   -0.5989    2.8340 C   0  0  0  0  0
    0.0594   -1.6562    2.2539 C   0  0  0  0  0
    0.0435   -2.2305   -2.8506 C   0  0  0  0  0
   -5.2500    0.4099   -1.4287 C   0  0  0  0  0
    1.8724   -0.6451    5.8057 H   0  0  0  0  0
   -4.3913   -0.3000   -4.1383 H   0  0  0  0  0
   -1.9950   -1.6785    6.8299 H   0  0  0  0  0
   -0.4308   -1.4834    9.1072 H   0  0  0  0  0
    0.3527   -2.0651   -0.1355 H   0  0  0  0  0
   -2.4173   -0.2001    4.9073 H   0  0  0  0  0
    1.2868   -2.0317    3.9309 H   0  0  0  0  0
   -3.0251   -0.2194    2.5120 H   0  0  0  0  0
    0.6965   -2.0348    1.5101 H   0  0  0  0  0
  1 25  1  0  0  0
  2 25  1  0  0  0
  3 25  1  0  0  0
  4  5  1  0  0  0
  4 10  1  0  0  0
  4 13  1  0  0  0
  5 14  2  0  0  0
  6 11  1  0  0  0
  6 15  1  0  0  0
  6 17  1  0  0  0
  7 10  1  0  0  0
  7 12  2  0  0  0
  8 11  2  0  0  0
  8 16  1  0  0  0
  9 26  3  0  0  0
 10 19  2  0  0  0
 11 27  1  0  0  0
 12 18  1  0  0  0
 12 20  1  0  0  0
 13 20  2  0  0  0
 13 25  1  0  0  0
 14 19  1  0  0  0
 14 28  1  0  0  0
 15 16  2  0  0  0
 15 29  1  0  0  0
 16 30  1  0  0  0
 17 21  2  0  0  0
 17 22  1  0  0  0
 18 23  2  0  0  0
 18 24  1  0  0  0
 19 26  1  0  0  0
 20 31  1  0  0  0
 21 23  1  0  0  0
 21 32  1  0  0  0
 22 24  2  0  0  0
 22 33  1  0  0  0
 23 34  1  0  0  0
 24 35  1  0  0  0
M  END
> <QPhAR in domain>
True

> <s_m_source_file>
iis-000-500-000--000-999-999_filtered_optim.maegz

> <r_epik_Charging_Adjusted_Penalty>
0.00879932

> <PRICERANGE_1MG>
< 50

> <Name>
MolPort-001-648-316

> <i_m_Source_File_Index>
9497

> <i_lp_mmshare_version>
36015

> <PUBCHEM_EXT_DATASOURCE_URL>
https://www.molport.com

> <s_lp_Force_Field>
OPLS3

> <r_epik_Ionization_Penalty>
0.00879932

> <r_epik_State_Penalty>
0.0

> <IS_SC>
Yes

> <r_epik_Ionization_Penalty_Neutral>
1.64448E-14

> <s_m_Source_Path>
/home/mrgulotta/data_server/CADD/LIBRERIE/OTTIMIZZATE/MOLPORT/ALL_STOCK_COMPOUNDS_FILTERED_NEW

> <i_m_source_file_index>
9497

> <PUBCHEM_EXT_SUBSTANCE_URL>
https://www.molport.com/shop/molecule-link/MolPort-001-648-316

> <VERIFIED_AMOUNT_MG>
30.0

> <r_epik_Ionization_Penalty_Charging>
0.00879932

> <r_lp_Energy>
32.2225

> <QC_METHOD>
NMR

> <QPhAR prediction>
6.847384926316515

> <i_epik_Tot_abs_Q>
0

> <i_epik_Tot_Q>
0

> <cdk:Title>
null

> <b_lp_Chiralities_Consistent>
1

> <s_m_entry_name>
iis-000-500-000--000-999-999_filtered.9497

> <i_f3d_flags>
0

> <PRICERANGE_5MG>
< 50

> <COMPOUND_STATE>
N/A

> <s_m_entry_id>
49448

> <Molecule_Name>
MolPort-001-648-316

> <Score>
0.9404475204004031

> <BEST_LEAD_TIME>
10

> <s_lp_Variant>
MolPort-001-648-316-1

> <s_m_Source_File>
iis-000-500-000--000-999-999_filtered.sdf

> <r_lp_tautomer_probability>
1.0

> <UNVERIFIED_AMOUNT_MG>
30.0

$$$$
MolPort-010-653-022
XX    ILIB07022204093D

 48 52  0  0  1  0              1 V2000
   -2.6094    0.7537   -1.1523 S   0  0  0  0  0
   -0.5288   -0.3000   -8.5039 S   0  0  0  0  0
   -2.7061    2.4668   -5.2695 O   0  0  0  0  0
   -0.5518   -1.2280   -9.6172 O   0  0  0  0  0
    0.3373    0.8623   -8.5391 O   0  0  0  0  0
   -2.7061    2.1064   -3.9238 N   0  0  0  0  0
   -2.3506   -1.2266    0.8491 N   0  0  0  0  0
   -2.0996   -2.5674    0.8323 N   0  0  0  0  0
   -2.2900    0.2699   -5.2129 N   0  0  0  0  0
   -2.1191    0.1785   -8.1523 N   0  0  0  0  0
   -2.3809   -0.7024   -0.3948 C   0  0  0  0  0
   -2.3809   -0.0175   -2.7100 C   0  0  0  0  0
   -0.1202   -1.2378   -7.0586 C   0  0  0  0  0
   -2.4531    1.3257   -5.9746 C   0  0  0  0  0
   -2.4619    0.7871   -3.9492 C   0  0  0  0  0
   -1.9775   -2.8691   -0.4800 C   0  0  0  0  0
   -2.5312   -0.6001    2.0742 C   0  0  0  0  0
   -2.1494   -1.7153   -1.2324 C   0  0  0  0  0
   -2.1357   -1.3867   -2.5830 C   0  0  0  0  0
   -0.3933   -2.6123   -7.0566 C   0  0  0  0  0
    0.4702   -0.5640   -5.9727 C   0  0  0  0  0
   -1.5811   -0.8186    3.0811 C   0  0  0  0  0
   -3.6572    0.2294    2.2383 C   0  0  0  0  0
   -0.0871   -3.3701   -5.9277 C   0  0  0  0  0
    0.7717   -1.3589   -4.8574 C   0  0  0  0  0
   -1.7451   -0.2057    4.3223 C   0  0  0  0  0
   -3.7861    0.8352    3.4971 C   0  0  0  0  0
    0.5042   -2.7354   -4.8340 C   0  0  0  0  0
   -2.8486    0.6277    4.5195 C   0  0  0  0  0
   -2.3984    1.4360   -7.4395 C   0  0  0  0  0
   -1.7007   -4.2539   -0.8826 C   0  0  0  0  0
   -2.8953   -0.4035   -8.4331 H   0  0  0  0  0
   -1.9805   -1.9739   -3.4395 H   0  0  0  0  0
   -0.8251   -3.0630   -7.9010 H   0  0  0  0  0
    0.6564    0.4676   -6.0334 H   0  0  0  0  0
   -0.7546   -1.4395    2.8972 H   0  0  0  0  0
   -4.3330    0.3601    1.4454 H   0  0  0  0  0
   -0.3015   -4.3978   -5.9113 H   0  0  0  0  0
    1.2106   -0.9260   -4.0074 H   0  0  0  0  0
   -1.0462   -0.3743    5.0875 H   0  0  0  0  0
   -4.6025    1.4650    3.6955 H   0  0  0  0  0
    0.7552   -3.2894   -3.9781 H   0  0  0  0  0
   -2.9849    1.1087    5.4428 H   0  0  0  0  0
   -3.3293    1.8127   -7.7460 H   0  0  0  0  0
   -1.6479    2.1368   -7.6588 H   0  0  0  0  0
   -0.7299   -4.3161   -1.2778 H   0  0  0  0  0
   -1.7791   -4.8839   -0.0463 H   0  0  0  0  0
   -2.3951   -4.5519   -1.6116 H   0  0  0  0  0
  1 11  1  0  0  0
  1 12  1  0  0  0
  2  4  2  0  0  0
  2  5  2  0  0  0
  2 10  1  0  0  0
  2 13  1  0  0  0
  3  6  1  0  0  0
  3 14  1  0  0  0
  6 15  2  0  0  0
  7  8  1  0  0  0
  7 11  1  0  0  0
  7 17  1  0  0  0
  8 16  2  0  0  0
  9 14  2  0  0  0
  9 15  1  0  0  0
 10 30  1  0  0  0
 10 32  1  0  0  0
 11 18  2  0  0  0
 12 15  1  0  0  0
 12 19  2  0  0  0
 13 20  2  0  0  0
 13 21  1  0  0  0
 14 30  1  0  0  0
 16 18  1  0  0  0
 16 31  1  0  0  0
 17 22  2  0  0  0
 17 23  1  0  0  0
 18 19  1  0  0  0
 19 33  1  0  0  0
 20 24  1  0  0  0
 20 34  1  0  0  0
 21 25  2  0  0  0
 21 35  1  0  0  0
 22 26  1  0  0  0
 22 36  1  0  0  0
 23 27  2  0  0  0
 23 37  1  0  0  0
 24 28  2  0  0  0
 24 38  1  0  0  0
 25 28  1  0  0  0
 25 39  1  0  0  0
 26 29  2  0  0  0
 26 40  1  0  0  0
 27 29  1  0  0  0
 27 41  1  0  0  0
 28 42  1  0  0  0
 29 43  1  0  0  0
 30 44  1  0  0  0
 30 45  1  0  0  0
 31 46  1  0  0  0
 31 47  1  0  0  0
 31 48  1  0  0  0
M  END
> <QPhAR in domain>
True

> <s_m_source_file>
iis-004-000-000--004-499-999_filtered_optim.maegz

> <r_epik_Charging_Adjusted_Penalty>
0.0

> <PRICERANGE_1MG>
50 - 100

> <Name>
MolPort-010-653-022

> <i_m_Source_File_Index>
42094

> <i_lp_mmshare_version>
36015

> <PUBCHEM_EXT_DATASOURCE_URL>
https://www.molport.com

> <s_lp_Force_Field>
OPLS3

> <r_epik_Ionization_Penalty>
0.00116228

> <r_epik_State_Penalty>
0.0

> <IS_SC>
Yes

> <r_epik_Ionization_Penalty_Neutral>
0.00116228

> <s_m_Source_Path>
/home/mrgulotta/data_server/CADD/LIBRERIE/OTTIMIZZATE/MOLPORT/ALL_STOCK_COMPOUNDS_FILTERED_NEW

> <i_m_source_file_index>
42094

> <PUBCHEM_EXT_SUBSTANCE_URL>
https://www.molport.com/shop/molecule-link/MolPort-010-653-022

> <VERIFIED_AMOUNT_MG>
30

> <r_epik_Ionization_Penalty_Charging>
0.0

> <r_lp_Energy>
17.1713

> <QC_METHOD>
NMR

> <QPhAR prediction>
6.828023760664925

> <i_epik_Tot_abs_Q>
0

> <i_epik_Tot_Q>
0

> <cdk:Title>
null

> <b_lp_Chiralities_Consistent>
1

> <s_m_entry_name>
iis-004-000-000--004-499-999_filtered.42094

> <i_f3d_flags>
0

> <PRICERANGE_5MG>
50 - 100

> <COMPOUND_STATE>
SOLID

> <s_m_entry_id>
112872

> <Molecule_Name>
MolPort-010-653-022

> <Score>
0.9219273926599607

> <BEST_LEAD_TIME>
10

> <s_lp_Variant>
MolPort-010-653-022-1

> <s_m_Source_File>
iis-004-000-000--004-499-999_filtered.sdf

> <r_lp_tautomer_probability>
1.0

> <UNVERIFIED_AMOUNT_MG>
30

$$$$
MolPort-009-485-106
XX    ILIB07022204093D

 45 47  0  0  1  0              1 V2000
   -4.6816   -0.3429   -1.3159 O   0  0  0  0  0
   -0.7356   -3.6816   -2.8203 O   0  0  0  0  0
   -4.8496   -0.7026   -2.6396 N   0  0  0  0  0
   -2.9922   -0.4830    0.3502 N   0  0  0  0  0
    0.1421   -1.6670   -3.5234 N   0  0  0  0  0
   -3.4463   -0.7161   -0.8916 C   0  0  0  0  0
   -1.7305   -0.9302    0.5779 C   0  0  0  0  0
   -3.7041   -1.2900   -3.0078 C   0  0  0  0  0
   -2.7793   -1.3428   -1.9316 C   0  0  0  0  0
   -1.2231   -0.6948    1.9004 C   0  0  0  0  0
   -1.4746   -1.7935   -1.6714 C   0  0  0  0  0
   -0.9443   -1.5796   -0.3885 C   0  0  0  0  0
   -1.9092   -1.2539    2.9863 C   0  0  0  0  0
   -0.0559    0.0808    2.0361 C   0  0  0  0  0
   -1.4395   -1.0327    4.2812 C   0  0  0  0  0
    0.3921    0.2766    3.3516 C   0  0  0  0  0
   -0.2810   -0.2716    4.4531 C   0  0  0  0  0
   -0.6816   -2.4561   -2.6973 C   0  0  0  0  0
    0.9404   -2.3008   -4.5352 C   0  0  0  0  0
    0.2104   -0.2079   -3.4941 C   0  0  0  0  0
   -3.5547   -1.7832   -4.3828 C   0  0  0  0  0
    2.3389   -2.7139   -4.0586 C   0  0  0  0  0
    3.1699   -1.5254   -3.5703 C   0  0  0  0  0
    4.5488   -1.9653   -3.1055 C   0  0  0  0  0
    0.0267   -1.8983   -0.1476 H   0  0  0  0  0
   -2.7690   -1.8337    2.8218 H   0  0  0  0  0
    0.4184    0.4692    1.1836 H   0  0  0  0  0
   -1.9550   -1.4354    5.1026 H   0  0  0  0  0
    1.2545    0.8475    3.5330 H   0  0  0  0  0
    0.0979   -0.1028    5.4177 H   0  0  0  0  0
    1.0702   -1.6419   -5.3424 H   0  0  0  0  0
    0.4568   -3.1713   -4.8683 H   0  0  0  0  0
    0.7088    0.1017   -2.6233 H   0  0  0  0  0
    0.7335    0.1350   -4.3375 H   0  0  0  0  0
   -0.7620    0.1882   -3.5004 H   0  0  0  0  0
   -3.4806   -0.9683   -5.0408 H   0  0  0  0  0
   -2.6861   -2.3690   -4.4521 H   0  0  0  0  0
   -4.3905   -2.3649   -4.6387 H   0  0  0  0  0
    2.2510   -3.3938   -3.2633 H   0  0  0  0  0
    2.8589   -3.1668   -4.8504 H   0  0  0  0  0
    2.6794   -1.0624   -2.7656 H   0  0  0  0  0
    3.2869   -0.8351   -4.3528 H   0  0  0  0  0
    4.4561   -2.5469   -2.2362 H   0  0  0  0  0
    5.0075   -2.5338   -3.8597 H   0  0  0  0  0
    5.1352   -1.1190   -2.8995 H   0  0  0  0  0
  1  3  1  0  0  0
  1  6  1  0  0  0
  2 18  2  0  0  0
  3  8  2  0  0  0
  4  6  2  0  0  0
  4  7  1  0  0  0
  5 18  1  0  0  0
  5 19  1  0  0  0
  5 20  1  0  0  0
  6  9  1  0  0  0
  7 10  1  0  0  0
  7 12  2  0  0  0
  8  9  1  0  0  0
  8 21  1  0  0  0
  9 11  2  0  0  0
 10 13  2  0  0  0
 10 14  1  0  0  0
 11 12  1  0  0  0
 11 18  1  0  0  0
 12 25  1  0  0  0
 13 15  1  0  0  0
 13 26  1  0  0  0
 14 16  2  0  0  0
 14 27  1  0  0  0
 15 17  2  0  0  0
 15 28  1  0  0  0
 16 17  1  0  0  0
 16 29  1  0  0  0
 17 30  1  0  0  0
 19 22  1  0  0  0
 19 31  1  0  0  0
 19 32  1  0  0  0
 20 33  1  0  0  0
 20 34  1  0  0  0
 20 35  1  0  0  0
 21 36  1  0  0  0
 21 37  1  0  0  0
 21 38  1  0  0  0
 22 23  1  0  0  0
 22 39  1  0  0  0
 22 40  1  0  0  0
 23 24  1  0  0  0
 23 41  1  0  0  0
 23 42  1  0  0  0
 24 43  1  0  0  0
 24 44  1  0  0  0
 24 45  1  0  0  0
M  END
> <QPhAR in domain>
True

> <s_m_source_file>
iis-004-000-000--004-499-999_filtered_optim.maegz

> <PRICERANGE_50MG>
100 - 250

> <r_epik_Charging_Adjusted_Penalty>
0.0

> <PRICERANGE_1MG>
50 - 100

> <Name>
MolPort-009-485-106

> <i_m_Source_File_Index>
2437

> <i_lp_mmshare_version>
36015

> <PUBCHEM_EXT_DATASOURCE_URL>
https://www.molport.com

> <s_lp_Force_Field>
OPLS3

> <r_epik_Ionization_Penalty>
4.62558E-10

> <r_epik_State_Penalty>
0.0

> <IS_SC>
Yes

> <r_epik_Ionization_Penalty_Neutral>
4.62558E-10

> <s_m_Source_Path>
/home/mrgulotta/data_server/CADD/LIBRERIE/OTTIMIZZATE/MOLPORT/ALL_STOCK_COMPOUNDS_FILTERED_NEW

> <i_m_source_file_index>
2437

> <PUBCHEM_EXT_SUBSTANCE_URL>
https://www.molport.com/shop/molecule-link/MolPort-009-485-106

> <VERIFIED_AMOUNT_MG>
200

> <r_epik_Ionization_Penalty_Charging>
0.0

> <r_lp_Energy>
39.9128

> <QC_METHOD>
LCMS

> <QPhAR prediction>
6.821318606696877

> <i_epik_Tot_abs_Q>
0

> <i_epik_Tot_Q>
0

> <cdk:Title>
null

> <b_lp_Chiralities_Consistent>
1

> <s_m_entry_name>
iis-004-000-000--004-499-999_filtered.2437

> <i_f3d_flags>
0

> <PRICERANGE_5MG>
50 - 100

> <COMPOUND_STATE>
SOLID

> <s_m_entry_id>
73215

> <Molecule_Name>
MolPort-009-485-106

> <Score>
0.9431421052699441

> <BEST_LEAD_TIME>
10

> <s_lp_Variant>
MolPort-009-485-106-1

> <s_m_Source_File>
iis-004-000-000--004-499-999_filtered.sdf

> <r_lp_tautomer_probability>
1.0

> <UNVERIFIED_AMOUNT_MG>
200

$$$$
MolPort-002-333-411
XX    ILIB07022204093D

 52 54  0  0  1  0              1 V2000
    0.8118    0.3059    4.9531 O   0  0  0  0  0
   -1.8618   -2.9375   -4.0664 O   0  0  0  0  0
   -0.0185   -2.9238   -2.6670 O   0  0  0  0  0
   -3.1152   -0.5444    0.1620 N   0  0  0  0  0
    0.1603    0.0125    3.7773 C   0  0  0  0  0
   -3.8291   -0.8186   -0.9456 C   0  0  0  0  0
   -1.8311   -0.9636    0.2233 C   0  0  0  0  0
   -3.2773   -1.5200   -2.0371 C   0  0  0  0  0
   -1.1445   -0.6443    1.4434 C   0  0  0  0  0
   -5.1582   -0.3993   -1.0225 C   0  0  0  0  0
   -1.9287   -1.9150   -1.9375 C   0  0  0  0  0
   -0.3434    1.0396    2.9766 C   0  0  0  0  0
    0.0145   -1.3315    3.4033 C   0  0  0  0  0
   -1.1938   -1.6523   -0.7859 C   0  0  0  0  0
   -4.0781   -1.7852   -3.1660 C   0  0  0  0  0
   -1.0122    0.7046    1.8003 C   0  0  0  0  0
   -0.6462   -1.7046    2.2236 C   0  0  0  0  0
   -5.9492   -0.6548   -2.1465 C   0  0  0  0  0
   -5.4023   -1.3574   -3.2168 C   0  0  0  0  0
   -1.2935   -2.6367   -3.0312 C   0  0  0  0  0
    0.7300   -3.6650   -3.6162 C   0  0  0  0  0
    2.2139    0.4728    4.7402 C   0  0  0  0  0
   -5.7168    0.3345    0.1423 C   0  0  0  0  0
    1.4473   -2.7012   -4.5586 C   0  0  0  0  0
    2.4092   -1.7720   -3.8115 C   0  0  0  0  0
    3.1436   -0.7937   -4.7305 C   0  0  0  0  0
    2.2148    0.1309   -5.5020 C   0  0  0  0  0
   -0.2150    2.0411    3.2649 H   0  0  0  0  0
    0.4055   -2.0915    4.0132 H   0  0  0  0  0
   -0.1955   -1.9548   -0.6659 H   0  0  0  0  0
   -3.6777   -2.3111   -3.9819 H   0  0  0  0  0
   -1.4151    1.4528    1.1836 H   0  0  0  0  0
   -0.7810   -2.6970    1.9082 H   0  0  0  0  0
   -6.9432   -0.3179   -2.1765 H   0  0  0  0  0
   -5.9889   -1.5647   -4.0626 H   0  0  0  0  0
    0.0830   -4.2802   -4.1689 H   0  0  0  0  0
    1.4371   -4.2596   -3.1172 H   0  0  0  0  0
    2.4921   -0.0069    3.8486 H   0  0  0  0  0
    2.4381    1.4963    4.6717 H   0  0  0  0  0
    2.7425    0.0517    5.5438 H   0  0  0  0  0
   -6.5877    0.8433   -0.1495 H   0  0  0  0  0
   -5.9490   -0.3469    0.9066 H   0  0  0  0  0
   -5.0085    1.0257    0.4929 H   0  0  0  0  0
    2.0022   -3.2480   -5.2626 H   0  0  0  0  0
    0.7394   -2.1066   -5.0564 H   0  0  0  0  0
    3.1357   -2.3456   -3.3158 H   0  0  0  0  0
    1.8730   -1.2041   -3.1098 H   0  0  0  0  0
    3.7834   -0.1890   -4.1582 H   0  0  0  0  0
    3.7071   -1.3311   -5.4349 H   0  0  0  0  0
    2.6001    1.1075   -5.4854 H   0  0  0  0  0
    2.1393   -0.1987   -6.4961 H   0  0  0  0  0
    1.2637    0.1223   -5.0572 H   0  0  0  0  0
  1  5  1  0  0  0
  1 22  1  0  0  0
  2 20  2  0  0  0
  3 20  1  0  0  0
  3 21  1  0  0  0
  4  6  2  0  0  0
  4  7  1  0  0  0
  5 12  2  0  0  0
  5 13  1  0  0  0
  6  8  1  0  0  0
  6 10  1  0  0  0
  7  9  1  0  0  0
  7 14  2  0  0  0
  8 11  2  0  0  0
  8 15  1  0  0  0
  9 16  2  0  0  0
  9 17  1  0  0  0
 10 18  2  0  0  0
 10 23  1  0  0  0
 11 14  1  0  0  0
 11 20  1  0  0  0
 12 16  1  0  0  0
 12 28  1  0  0  0
 13 17  2  0  0  0
 13 29  1  0  0  0
 14 30  1  0  0  0
 15 19  2  0  0  0
 15 31  1  0  0  0
 16 32  1  0  0  0
 17 33  1  0  0  0
 18 19  1  0  0  0
 18 34  1  0  0  0
 19 35  1  0  0  0
 21 24  1  0  0  0
 21 36  1  0  0  0
 21 37  1  0  0  0
 22 38  1  0  0  0
 22 39  1  0  0  0
 22 40  1  0  0  0
 23 41  1  0  0  0
 23 42  1  0  0  0
 23 43  1  0  0  0
 24 25  1  0  0  0
 24 44  1  0  0  0
 24 45  1  0  0  0
 25 26  1  0  0  0
 25 46  1  0  0  0
 25 47  1  0  0  0
 26 27  1  0  0  0
 26 48  1  0  0  0
 26 49  1  0  0  0
 27 50  1  0  0  0
 27 51  1  0  0  0
 27 52  1  0  0  0
M  END
> <QPhAR in domain>
True

> <s_m_source_file>
iis-001-000-000--001-499-999_minus_1_wrong_filtered_optim.maegz

> <PRICERANGE_50MG>
100 - 250

> <r_epik_Charging_Adjusted_Penalty>
0.0

> <PRICERANGE_1MG>
< 50

> <s_epik_Chemistry_Notes>
This compound has an ester and may undergo hydrolysis at high or low pH.

> <Name>
MolPort-002-333-411

> <i_m_Source_File_Index>
5012

> <i_lp_mmshare_version>
36015

> <PUBCHEM_EXT_DATASOURCE_URL>
https://www.molport.com

> <s_lp_Force_Field>
OPLS3

> <r_epik_Ionization_Penalty>
3.17931E-6

> <r_epik_State_Penalty>
0.0

> <IS_SC>
Yes

> <r_epik_Ionization_Penalty_Neutral>
3.17931E-6

> <s_m_Source_Path>
/home/mrgulotta/data_server/CADD/LIBRERIE/OTTIMIZZATE/MOLPORT/ALL_STOCK_COMPOUNDS_FILTERED_NEW

> <i_m_source_file_index>
5012

> <PUBCHEM_EXT_SUBSTANCE_URL>
https://www.molport.com/shop/molecule-link/MolPort-002-333-411

> <VERIFIED_AMOUNT_MG>
800

> <r_epik_Ionization_Penalty_Charging>
0.0

> <r_lp_Energy>
47.1249

> <QC_METHOD>
NMR

> <QPhAR prediction>
6.821318606696877

> <i_epik_Tot_abs_Q>
0

> <i_epik_Tot_Q>
0

> <cdk:Title>
null

> <b_lp_Chiralities_Consistent>
1

> <s_m_entry_name>
iis-001-000-000--001-499-999_minus_1_wrong_filtered.5012

> <i_f3d_flags>
0

> <PRICERANGE_5MG>
< 50

> <COMPOUND_STATE>
SOLID; N/A

> <s_m_entry_id>
90761

> <Molecule_Name>
MolPort-002-333-411

> <Score>
0.9313869111362928

> <BEST_LEAD_TIME>
10

> <s_lp_Variant>
MolPort-002-333-411-1

> <s_m_Source_File>
iis-001-000-000--001-499-999_minus_1_wrong_filtered.sdf

> <r_lp_tautomer_probability>
1.0

> <UNVERIFIED_AMOUNT_MG>
800.0

$$$$
MolPort-001-660-702
XX    ILIB07022204093D

 43 46  0  0  1  0              1 V2000
    0.0371   -1.0420    2.0693 S   0  0  0  0  0
   -6.6914   -1.4531   -0.9102 F   0  0  0  0  0
   -6.3555    0.6714   -1.1846 F   0  0  0  0  0
   -6.5176   -0.1509    0.8218 F   0  0  0  0  0
   -1.8784   -1.3281   -2.6279 N   0  0  0  0  0
   -2.8154   -1.3076   -3.5898 N   0  0  0  0  0
   -1.6567   -1.0513   -0.2443 N   0  0  0  0  0
   -1.6553   -0.7632    2.0645 C   0  0  0  0  0
    0.1501   -0.8313    3.7666 C   0  0  0  0  0
   -2.3760   -1.0869   -1.3774 C   0  0  0  0  0
   -2.4053   -0.7854    0.8406 C   0  0  0  0  0
   -3.9395   -1.0444   -2.9189 C   0  0  0  0  0
   -0.5623   -1.5815   -2.9893 C   0  0  0  0  0
   -3.7471   -0.8870   -1.5234 C   0  0  0  0  0
   -4.5273   -0.6160   -0.3705 C   0  0  0  0  0
   -2.1162   -0.5349    3.3428 C   0  0  0  0  0
   -1.0923   -0.6084    4.3262 C   0  0  0  0  0
   -3.7822   -0.5586    0.8367 C   0  0  0  0  0
   -0.0122   -0.8433   -4.0410 C   0  0  0  0  0
    0.1473   -2.5635   -2.2715 C   0  0  0  0  0
    1.3115   -1.0850   -4.4277 C   0  0  0  0  0
    1.4722   -2.7754   -2.6807 C   0  0  0  0  0
    2.0469   -2.0488   -3.7344 C   0  0  0  0  0
   -5.9961   -0.3925   -0.4126 C   0  0  0  0  0
    1.4458   -0.9373    4.4531 C   0  0  0  0  0
   -5.1816   -0.9629   -3.6973 C   0  0  0  0  0
    1.7012   -2.3447    4.8848 C   0  0  0  0  0
   -3.1336   -0.3325    3.5058 H   0  0  0  0  0
   -1.1900   -0.5148    5.3675 H   0  0  0  0  0
   -4.2811   -0.3420    1.7348 H   0  0  0  0  0
   -0.5905   -0.1170   -4.5315 H   0  0  0  0  0
   -0.3209   -3.0815   -1.4873 H   0  0  0  0  0
    1.7324   -0.5462   -5.2246 H   0  0  0  0  0
    2.0632   -3.4945   -2.1947 H   0  0  0  0  0
    3.0451   -2.2385   -3.9993 H   0  0  0  0  0
    1.4446   -0.3174    5.3006 H   0  0  0  0  0
    2.2127   -0.6378    3.8014 H   0  0  0  0  0
   -5.0411   -0.3184   -4.5142 H   0  0  0  0  0
   -5.9527   -0.5929   -3.0882 H   0  0  0  0  0
   -5.4394   -1.9191   -4.0462 H   0  0  0  0  0
    0.9854   -2.6270    5.5992 H   0  0  0  0  0
    2.6610   -2.4132    5.3050 H   0  0  0  0  0
    1.6367   -2.9829    4.0535 H   0  0  0  0  0
  1  8  1  0  0  0
  1  9  1  0  0  0
  2 24  1  0  0  0
  3 24  1  0  0  0
  4 24  1  0  0  0
  5  6  1  0  0  0
  5 10  1  0  0  0
  5 13  1  0  0  0
  6 12  2  0  0  0
  7 10  2  0  0  0
  7 11  1  0  0  0
  8 11  1  0  0  0
  8 16  2  0  0  0
  9 17  2  0  0  0
  9 25  1  0  0  0
 10 14  1  0  0  0
 11 18  2  0  0  0
 12 14  1  0  0  0
 12 26  1  0  0  0
 13 19  2  0  0  0
 13 20  1  0  0  0
 14 15  2  0  0  0
 15 18  1  0  0  0
 15 24  1  0  0  0
 16 17  1  0  0  0
 16 28  1  0  0  0
 17 29  1  0  0  0
 18 30  1  0  0  0
 19 21  1  0  0  0
 19 31  1  0  0  0
 20 22  2  0  0  0
 20 32  1  0  0  0
 21 23  2  0  0  0
 21 33  1  0  0  0
 22 23  1  0  0  0
 22 34  1  0  0  0
 23 35  1  0  0  0
 25 27  1  0  0  0
 25 36  1  0  0  0
 25 37  1  0  0  0
 26 38  1  0  0  0
 26 39  1  0  0  0
 26 40  1  0  0  0
 27 41  1  0  0  0
 27 42  1  0  0  0
 27 43  1  0  0  0
M  END
> <QPhAR in domain>
True

> <s_m_source_file>
iis-000-500-000--000-999-999_filtered_optim.maegz

> <PRICERANGE_50MG>
100 - 250

> <r_epik_Charging_Adjusted_Penalty>
0.0

> <PRICERANGE_1MG>
< 50

> <Name>
MolPort-001-660-702

> <i_m_Source_File_Index>
10283

> <i_lp_mmshare_version>
36015

> <PUBCHEM_EXT_DATASOURCE_URL>
https://www.molport.com

> <s_lp_Force_Field>
OPLS3

> <r_epik_Ionization_Penalty>
2.0519E-6

> <r_epik_State_Penalty>
0.0

> <IS_SC>
Yes

> <r_epik_Ionization_Penalty_Neutral>
2.0519E-6

> <s_m_Source_Path>
/home/mrgulotta/data_server/CADD/LIBRERIE/OTTIMIZZATE/MOLPORT/ALL_STOCK_COMPOUNDS_FILTERED_NEW

> <i_m_source_file_index>
10283

> <PUBCHEM_EXT_SUBSTANCE_URL>
https://www.molport.com/shop/molecule-link/MolPort-001-660-702

> <VERIFIED_AMOUNT_MG>
50.0

> <r_epik_Ionization_Penalty_Charging>
0.0

> <r_lp_Energy>
27.6248

> <QC_METHOD>
NMR

> <QPhAR prediction>
6.8183186008834795

> <i_epik_Tot_abs_Q>
0

> <i_epik_Tot_Q>
0

> <cdk:Title>
null

> <b_lp_Chiralities_Consistent>
1

> <s_m_entry_name>
iis-000-500-000--000-999-999_filtered.10283

> <i_f3d_flags>
0

> <PRICERANGE_5MG>
< 50

> <COMPOUND_STATE>
N/A

> <s_m_entry_id>
50234

> <Molecule_Name>
MolPort-001-660-702

> <Score>
0.9308509344211581

> <BEST_LEAD_TIME>
10

> <s_lp_Variant>
MolPort-001-660-702-1

> <s_m_Source_File>
iis-000-500-000--000-999-999_filtered.sdf

> <r_lp_tautomer_probability>
1.0

> <UNVERIFIED_AMOUNT_MG>
50.0

$$$$
MolPort-010-741-616
XX    ILIB07022204093D

 50 53  0  0  1  0              1 V2000
   -1.2832   -0.4738    3.1367 O   0  0  0  0  0
   -0.2747    3.0938   -1.5981 O   0  0  0  0  0
   -1.7822   -2.5371    2.4365 N   0  0  0  0  0
   -1.3135   -2.6299    3.7314 N   0  0  0  0  0
   -2.4863    0.9988   -0.6816 N   0  0  0  0  0
   -1.3252    2.0977   -3.4170 N   0  0  0  0  0
   -1.7539   -1.2588    2.1162 C   0  0  0  0  0
   -1.0283   -1.4019    4.1094 C   0  0  0  0  0
   -2.9346   -0.1858   -1.2432 C   0  0  0  0  0
   -2.0762    0.7737    0.6147 C   0  0  0  0  0
   -2.7480   -1.1899   -0.2902 C   0  0  0  0  0
   -2.1445   -0.5874    0.8569 C   0  0  0  0  0
    0.7161   -1.4976   -4.5508 C   0  0  0  0  0
   -3.4873   -0.4648   -2.5039 C   0  0  0  0  0
   -3.1543   -2.5078   -0.5991 C   0  0  0  0  0
    0.8267   -2.1719   -3.3281 C   0  0  0  0  0
    1.3750   -1.9097   -5.7246 C   0  0  0  0  0
   -3.8721   -1.7793   -2.7881 C   0  0  0  0  0
   -3.7246   -2.7979   -1.8472 C   0  0  0  0  0
    1.6367   -3.3027   -3.2402 C   0  0  0  0  0
    2.1758   -3.0557   -5.6016 C   0  0  0  0  0
    2.3018   -3.7432   -4.3867 C   0  0  0  0  0
   -1.2490    2.5459   -2.1094 C   0  0  0  0  0
   -2.5195    2.2881   -1.3315 C   0  0  0  0  0
   -0.2516    2.2188   -4.3633 C   0  0  0  0  0
   -0.1471   -0.2902   -4.6172 C   0  0  0  0  0
   -0.4939   -0.9146    5.3887 C   0  0  0  0  0
    0.6406    0.9795   -4.2930 C   0  0  0  0  0
   -2.1703    1.6572   -3.7514 H   0  0  0  0  0
   -1.7844    1.5801    1.2205 H   0  0  0  0  0
   -3.6036    0.3052   -3.2082 H   0  0  0  0  0
   -3.0297   -3.2747    0.1071 H   0  0  0  0  0
    0.3018   -1.8245   -2.4876 H   0  0  0  0  0
    1.2496   -1.3675   -6.6150 H   0  0  0  0  0
   -4.2815   -2.0154   -3.7257 H   0  0  0  0  0
   -4.0367   -3.7760   -2.0672 H   0  0  0  0  0
    1.7378   -3.8062   -2.3243 H   0  0  0  0  0
    2.7015   -3.4206   -6.4340 H   0  0  0  0  0
    2.9066   -4.6006   -4.3460 H   0  0  0  0  0
   -3.3309    2.3238   -1.9970 H   0  0  0  0  0
   -2.6264    3.0419   -0.6084 H   0  0  0  0  0
   -0.6471    2.3080   -5.3318 H   0  0  0  0  0
    0.3188    3.0712   -4.1383 H   0  0  0  0  0
   -0.9305   -0.3815   -3.9241 H   0  0  0  0  0
   -0.5447   -0.1969   -5.5845 H   0  0  0  0  0
    0.5544   -0.8804    5.3398 H   0  0  0  0  0
   -0.8669    0.0481    5.5799 H   0  0  0  0  0
   -0.7873   -1.5633    6.1604 H   0  0  0  0  0
    1.4243    1.0727   -4.9856 H   0  0  0  0  0
    1.0377    0.8886   -3.3253 H   0  0  0  0  0
  1  7  1  0  0  0
  1  8  1  0  0  0
  2 23  2  0  0  0
  3  4  1  0  0  0
  3  7  2  0  0  0
  4  8  2  0  0  0
  5  9  1  0  0  0
  5 10  1  0  0  0
  5 24  1  0  0  0
  6 23  1  0  0  0
  6 25  1  0  0  0
  6 29  1  0  0  0
  7 12  1  0  0  0
  8 27  1  0  0  0
  9 11  2  0  0  0
  9 14  1  0  0  0
 10 12  2  0  0  0
 10 30  1  0  0  0
 11 12  1  0  0  0
 11 15  1  0  0  0
 13 16  2  0  0  0
 13 17  1  0  0  0
 13 26  1  0  0  0
 14 18  2  0  0  0
 14 31  1  0  0  0
 15 19  2  0  0  0
 15 32  1  0  0  0
 16 20  1  0  0  0
 16 33  1  0  0  0
 17 21  2  0  0  0
 17 34  1  0  0  0
 18 19  1  0  0  0
 18 35  1  0  0  0
 19 36  1  0  0  0
 20 22  2  0  0  0
 20 37  1  0  0  0
 21 22  1  0  0  0
 21 38  1  0  0  0
 22 39  1  0  0  0
 23 24  1  0  0  0
 24 40  1  0  0  0
 24 41  1  0  0  0
 25 28  1  0  0  0
 25 42  1  0  0  0
 25 43  1  0  0  0
 26 28  1  0  0  0
 26 44  1  0  0  0
 26 45  1  0  0  0
 27 46  1  0  0  0
 27 47  1  0  0  0
 27 48  1  0  0  0
 28 49  1  0  0  0
 28 50  1  0  0  0
M  END
> <QPhAR in domain>
True

> <s_m_source_file>
iis-004-000-000--004-499-999_filtered_optim.maegz

> <r_epik_Charging_Adjusted_Penalty>
0.0

> <PRICERANGE_1MG>
50 - 100

> <Name>
MolPort-010-741-616

> <i_m_Source_File_Index>
49325

> <i_lp_mmshare_version>
36015

> <PUBCHEM_EXT_DATASOURCE_URL>
https://www.molport.com

> <s_lp_Force_Field>
OPLS3

> <r_epik_Ionization_Penalty>
5.71893E-7

> <r_epik_State_Penalty>
0.0

> <IS_SC>
Yes

> <r_epik_Ionization_Penalty_Neutral>
5.71893E-7

> <s_m_Source_Path>
/home/mrgulotta/data_server/CADD/LIBRERIE/OTTIMIZZATE/MOLPORT/ALL_STOCK_COMPOUNDS_FILTERED_NEW

> <i_m_source_file_index>
49325

> <PUBCHEM_EXT_SUBSTANCE_URL>
https://www.molport.com/shop/molecule-link/MolPort-010-741-616

> <VERIFIED_AMOUNT_MG>
30

> <r_epik_Ionization_Penalty_Charging>
0.0

> <r_lp_Energy>
24.2404

> <QC_METHOD>
NMR

> <QPhAR prediction>
6.817627140245223

> <i_epik_Tot_abs_Q>
0

> <i_epik_Tot_Q>
0

> <cdk:Title>
null

> <b_lp_Chiralities_Consistent>
1

> <s_m_entry_name>
iis-004-000-000--004-499-999_filtered.49325

> <i_f3d_flags>
0

> <PRICERANGE_5MG>
50 - 100

> <COMPOUND_STATE>
SOLID

> <s_m_entry_id>
120103

> <Molecule_Name>
MolPort-010-741-616

> <Score>
0.9271433634721632

> <BEST_LEAD_TIME>
10

> <s_lp_Variant>
MolPort-010-741-616-1

> <s_m_Source_File>
iis-004-000-000--004-499-999_filtered.sdf

> <r_lp_tautomer_probability>
1.0

> <UNVERIFIED_AMOUNT_MG>
30

$$$$
MolPort-027-677-405
XX    ILIB07022204093D

 50 52  0  0  1  0              1 V2000
   -0.2841    1.9224    2.8398 S   0  0  2  0  0
   -0.5554   -0.4012   -0.9304 S   0  0  0  0  0
    0.9744    2.2158    3.6016 O   0  0  0  0  0
   -2.2188   -1.7051   -2.6709 N   0  0  0  0  0
   -3.2373   -0.7568   -0.9180 N   0  0  0  0  0
   -2.0850   -0.9644   -1.5171 C   0  0  0  0  0
   -1.0093    0.5029    3.6475 C   0  0  0  0  0
   -3.5615   -1.9795   -2.7930 C   0  0  0  0  0
   -4.1602   -1.3848   -1.7070 C   0  0  0  0  0
   -0.1863   -0.3025    4.4453 C   0  0  0  0  0
   -2.3818    0.2566    3.4541 C   0  0  0  0  0
   -0.7283   -1.4194    5.0801 C   0  0  0  0  0
   -2.8945   -0.8708    4.1113 C   0  0  0  0  0
   -2.0879   -1.6919    4.9141 C   0  0  0  0  0
    0.1945    1.0566    1.3057 C   0  0  0  0  0
   -1.0103    0.4590    0.5894 C   0  0  0  0  0
   -1.1621   -2.1113   -3.5693 C   0  0  0  0  0
   -4.1250   -2.7432   -3.9160 C   0  0  0  0  0
   -5.5898   -1.3750   -1.3691 C   0  0  0  0  0
   -0.4266   -0.8962   -4.1523 C   0  0  0  0  0
   -0.1799   -3.1016   -2.9189 C   0  0  0  0  0
    0.6733   -1.3228   -5.1211 C   0  0  0  0  0
    0.9133   -3.5205   -3.9004 C   0  0  0  0  0
    1.6421   -2.3105   -4.4785 C   0  0  0  0  0
    0.8294   -0.0630    4.5612 H   0  0  0  0  0
   -2.9504    0.8995    2.8492 H   0  0  0  0  0
   -0.1166   -2.0368    5.6693 H   0  0  0  0  0
   -3.9091   -1.1214    4.0100 H   0  0  0  0  0
   -2.5196   -2.5205    5.3932 H   0  0  0  0  0
    0.6620    1.7334    0.6531 H   0  0  0  0  0
    0.8591    0.2771    1.5365 H   0  0  0  0  0
   -1.4755   -0.2146    1.2470 H   0  0  0  0  0
   -1.6727    1.2418    0.3637 H   0  0  0  0  0
   -1.5704   -2.6660   -4.3618 H   0  0  0  0  0
   -4.1584   -2.1349   -4.7712 H   0  0  0  0  0
   -3.5224   -3.5818   -4.1063 H   0  0  0  0  0
   -5.0965   -3.0583   -3.6724 H   0  0  0  0  0
   -6.1431   -1.7532   -2.1774 H   0  0  0  0  0
   -5.8947   -0.3910   -1.1661 H   0  0  0  0  0
   -5.7534   -1.9739   -0.5223 H   0  0  0  0  0
    0.0112   -0.3451   -3.3731 H   0  0  0  0  0
   -1.1093   -0.2891   -4.6698 H   0  0  0  0  0
    0.2728   -2.6496   -2.0863 H   0  0  0  0  0
   -0.7006   -3.9599   -2.6113 H   0  0  0  0  0
    0.2414   -1.7831   -5.9602 H   0  0  0  0  0
    1.2176   -0.4784   -5.4265 H   0  0  0  0  0
    1.6149   -4.1250   -3.4057 H   0  0  0  0  0
    0.4843   -4.0591   -4.6931 H   0  0  0  0  0
    2.1619   -1.8347   -3.7001 H   0  0  0  0  0
    2.3256   -2.6498   -5.1997 H   0  0  0  0  0
  1  3  2  0  0  0
  1  7  1  0  0  0
  1 15  1  0  0  0
  2  6  1  0  0  0
  2 16  1  0  0  0
  4  6  1  0  0  0
  4  8  1  0  0  0
  4 17  1  0  0  0
  5  6  2  0  0  0
  5  9  1  0  0  0
  7 10  2  0  0  0
  7 11  1  0  0  0
  8  9  2  0  0  0
  8 18  1  0  0  0
  9 19  1  0  0  0
 10 12  1  0  0  0
 10 25  1  0  0  0
 11 13  2  0  0  0
 11 26  1  0  0  0
 12 14  2  0  0  0
 12 27  1  0  0  0
 13 14  1  0  0  0
 13 28  1  0  0  0
 14 29  1  0  0  0
 15 16  1  0  0  0
 15 30  1  0  0  0
 15 31  1  0  0  0
 16 32  1  0  0  0
 16 33  1  0  0  0
 17 20  1  0  0  0
 17 21  1  0  0  0
 17 34  1  0  0  0
 18 35  1  0  0  0
 18 36  1  0  0  0
 18 37  1  0  0  0
 19 38  1  0  0  0
 19 39  1  0  0  0
 19 40  1  0  0  0
 20 22  1  0  0  0
 20 41  1  0  0  0
 20 42  1  0  0  0
 21 23  1  0  0  0
 21 43  1  0  0  0
 21 44  1  0  0  0
 22 24  1  0  0  0
 22 45  1  0  0  0
 22 46  1  0  0  0
 23 24  1  0  0  0
 23 47  1  0  0  0
 23 48  1  0  0  0
 24 49  1  0  0  0
 24 50  1  0  0  0
M  END
> <QPhAR in domain>
True

> <s_m_source_file>
iis-005-000-000--005-499-999_filtered_optim.maegz

> <PRICERANGE_50MG>
100 - 250

> <r_epik_Charging_Adjusted_Penalty>
0.566709

> <PRICERANGE_1MG>
50 - 100

> <Name>
MolPort-027-677-405

> <i_m_Source_File_Index>
90285

> <i_lp_mmshare_version>
36015

> <PUBCHEM_EXT_DATASOURCE_URL>
https://www.molport.com

> <s_lp_Force_Field>
OPLS3

> <r_epik_Ionization_Penalty>
0.286929

> <r_epik_State_Penalty>
0.27978

> <IS_SC>
Yes

> <r_epik_Ionization_Penalty_Neutral>
9.5235E-13

> <s_m_Source_Path>
/home/mrgulotta/data_server/CADD/LIBRERIE/OTTIMIZZATE/MOLPORT/ALL_STOCK_COMPOUNDS_FILTERED_NEW

> <i_m_source_file_index>
90285

> <PUBCHEM_EXT_SUBSTANCE_URL>
https://www.molport.com/shop/molecule-link/MolPort-027-677-405

> <VERIFIED_AMOUNT_MG>
100

> <r_epik_Ionization_Penalty_Charging>
0.286929

> <r_lp_Energy>
18.1741

> <QC_METHOD>
LCMS

> <QPhAR prediction>
6.799289149416728

> <i_epik_Tot_abs_Q>
0

> <i_epik_Tot_Q>
0

> <cdk:Title>
null

> <b_lp_Chiralities_Consistent>
1

> <s_m_entry_name>
iis-005-000-000--005-499-999_filtered.90285

> <i_f3d_flags>
0

> <PRICERANGE_5MG>
50 - 100

> <COMPOUND_STATE>
OIL

> <s_m_entry_id>
90285

> <Molecule_Name>
MolPort-027-677-405

> <Score>
0.922229818714556

> <BEST_LEAD_TIME>
10

> <s_lp_Variant>
MolPort-027-677-405-1

> <s_m_Source_File>
iis-005-000-000--005-499-999_filtered.sdf

> <r_lp_tautomer_probability>
1.0

> <UNVERIFIED_AMOUNT_MG>
100

$$$$
MolPort-005-310-190
XX    ILIB07022204093D

 53 57  0  0  1  0              1 V2000
   -0.1426   -0.7549    1.6206 O   0  0  0  0  0
   -3.3506   -1.2373   -2.0010 N   0  0  0  0  0
   -3.7383   -1.4111   -3.2939 N   0  0  0  0  0
   -1.3320   -1.0615   -0.6951 N   0  0  0  0  0
   -1.5005   -0.7600    1.6123 C   0  0  0  0  0
    0.2425   -0.5859    2.9170 C   0  0  0  0  0
   -1.9570   -1.2212   -1.8945 C   0  0  0  0  0
   -2.1074   -0.9299    0.3367 C   0  0  0  0  0
   -4.1660   -1.0894   -0.8691 C   0  0  0  0  0
   -2.6006   -1.4995   -3.9805 C   0  0  0  0  0
   -1.4658   -1.3887   -3.1689 C   0  0  0  0  0
   -0.0885   -1.4370   -3.5576 C   0  0  0  0  0
   -3.5947   -0.9341    0.3375 C   0  0  0  0  0
   -1.9932   -0.5935    2.8848 C   0  0  0  0  0
   -0.8655   -0.4779    3.7314 C   0  0  0  0  0
    0.7712   -2.2949   -2.8594 C   0  0  0  0  0
    0.3297   -0.6238   -4.6270 C   0  0  0  0  0
    2.1182   -2.3535   -3.2148 C   0  0  0  0  0
    1.6890   -0.7139   -4.9629 C   0  0  0  0  0
    2.5674   -1.5640   -4.2754 C   0  0  0  0  0
   -5.6641   -1.1050   -1.0352 C   0  0  0  0  0
   -4.3359   -0.7937    1.6274 C   0  0  0  0  0
   -6.5977   -0.7749    2.7080 C   0  0  0  0  0
   -5.8125   -1.2051    1.4951 C   0  0  1  0  0
   -6.4180   -0.6226    0.2104 C   0  0  0  0  0
   -8.0820   -1.2007    2.5938 C   0  0  0  0  0
   -6.0625   -1.4531    3.9863 C   0  0  0  0  0
   -6.5625    0.7529    2.9160 C   0  0  0  0  0
    1.2631   -0.5553    3.1618 H   0  0  0  0  0
   -2.6248   -1.6379   -5.0211 H   0  0  0  0  0
   -3.0303   -0.5754    3.0480 H   0  0  0  0  0
   -0.7456   -0.3386    4.7652 H   0  0  0  0  0
    0.3996   -2.8868   -2.0758 H   0  0  0  0  0
   -0.3617   -0.0033   -5.1163 H   0  0  0  0  0
    2.7732   -2.9828   -2.6881 H   0  0  0  0  0
    2.0750   -0.1348   -5.7491 H   0  0  0  0  0
    3.5751   -1.6018   -4.5680 H   0  0  0  0  0
   -5.9835   -2.0844   -1.2384 H   0  0  0  0  0
   -5.9345   -0.4763   -1.8315 H   0  0  0  0  0
   -4.3027    0.2072    1.9430 H   0  0  0  0  0
   -3.8904   -1.4052    2.3554 H   0  0  0  0  0
   -5.8780   -2.2489    1.4018 H   0  0  0  0  0
   -7.4221   -0.9235    0.1502 H   0  0  0  0  0
   -6.3692    0.4248    0.2653 H   0  0  0  0  0
   -8.5401   -1.1292    3.5359 H   0  0  0  0  0
   -8.1364   -2.1922    2.2525 H   0  0  0  0  0
   -8.5760   -0.5695    1.9156 H   0  0  0  0  0
   -6.8387   -1.9861    4.4510 H   0  0  0  0  0
   -5.2867   -2.1139    3.7333 H   0  0  0  0  0
   -5.6978   -0.7208    4.6446 H   0  0  0  0  0
   -6.1446    0.9688    3.8547 H   0  0  0  0  0
   -5.9794    1.1953    2.1632 H   0  0  0  0  0
   -7.5396    1.1348    2.8717 H   0  0  0  0  0
  1  5  1  0  0  0
  1  6  1  0  0  0
  2  3  1  0  0  0
  2  7  1  0  0  0
  2  9  1  0  0  0
  3 10  2  0  0  0
  4  7  1  0  0  0
  4  8  2  0  0  0
  5  8  1  0  0  0
  5 14  2  0  0  0
  6 15  2  0  0  0
  6 29  1  0  0  0
  7 11  2  0  0  0
  8 13  1  0  0  0
  9 13  2  0  0  0
  9 21  1  0  0  0
 10 11  1  0  0  0
 10 30  1  0  0  0
 11 12  1  0  0  0
 12 16  2  0  0  0
 12 17  1  0  0  0
 13 22  1  0  0  0
 14 15  1  0  0  0
 14 31  1  0  0  0
 15 32  1  0  0  0
 16 18  1  0  0  0
 16 33  1  0  0  0
 17 19  2  0  0  0
 17 34  1  0  0  0
 18 20  2  0  0  0
 18 35  1  0  0  0
 19 20  1  0  0  0
 19 36  1  0  0  0
 20 37  1  0  0  0
 21 25  1  0  0  0
 21 38  1  0  0  0
 21 39  1  0  0  0
 22 24  1  0  0  0
 22 40  1  0  0  0
 22 41  1  0  0  0
 23 24  1  0  0  0
 23 26  1  0  0  0
 23 27  1  0  0  0
 23 28  1  0  0  0
 24 25  1  0  0  0
 24 42  1  0  0  0
 25 43  1  0  0  0
 25 44  1  0  0  0
 26 45  1  0  0  0
 26 46  1  0  0  0
 26 47  1  0  0  0
 27 48  1  0  0  0
 27 49  1  0  0  0
 27 50  1  0  0  0
 28 51  1  0  0  0
 28 52  1  0  0  0
 28 53  1  0  0  0
M  END
> <QPhAR in domain>
True

> <s_m_source_file>
iis-002-000-000--002-499-999_filtered_optim.maegz

> <PRICERANGE_50MG>
50 - 100

> <r_epik_Charging_Adjusted_Penalty>
0.0

> <PRICERANGE_1MG>
< 50

> <Name>
MolPort-005-310-190

> <i_m_Source_File_Index>
66764

> <i_lp_mmshare_version>
36015

> <PUBCHEM_EXT_DATASOURCE_URL>
https://www.molport.com

> <s_lp_Force_Field>
OPLS3

> <r_epik_Ionization_Penalty>
1.33284E-7

> <r_epik_State_Penalty>
0.0

> <IS_SC>
Yes

> <r_epik_Ionization_Penalty_Neutral>
1.33284E-7

> <s_m_Source_Path>
/home/mrgulotta/data_server/CADD/LIBRERIE/OTTIMIZZATE/MOLPORT/ALL_STOCK_COMPOUNDS_FILTERED_NEW

> <i_m_source_file_index>
66764

> <PUBCHEM_EXT_SUBSTANCE_URL>
https://www.molport.com/shop/molecule-link/MolPort-005-310-190

> <VERIFIED_AMOUNT_MG>
50

> <r_epik_Ionization_Penalty_Charging>
0.0

> <r_lp_Energy>
40.9033

> <QC_METHOD>
LCMS; NMR

> <QPhAR prediction>
6.799289149416728

> <i_epik_Tot_abs_Q>
0

> <i_epik_Tot_Q>
0

> <cdk:Title>
null

> <b_lp_Chiralities_Consistent>
1

> <s_m_entry_name>
iis-002-000-000--002-499-999_filtered.66764

> <i_f3d_flags>
0

> <PRICERANGE_5MG>
< 50

> <COMPOUND_STATE>
SOLID; N/A

> <s_m_entry_id>
106361

> <Molecule_Name>
MolPort-005-310-190

> <Score>
0.9286456636644497

> <BEST_LEAD_TIME>
10

> <s_lp_Variant>
MolPort-005-310-190-1

> <s_m_Source_File>
iis-002-000-000--002-499-999_filtered.sdf

> <r_lp_tautomer_probability>
1.0

> <UNVERIFIED_AMOUNT_MG>
100.0

$$$$
MolPort-046-554-736
XX    ILIB07022204093D

 55 59  0  0  1  0              1 V2000
   -4.4277   -0.9851   -2.7861 S   0  0  0  0  0
    1.8535   -2.9648   -5.3906 O   0  0  0  0  0
   -5.1758   -4.0957   -3.4092 O   0  0  0  0  0
   -1.3193   -6.8359   -3.9004 O   0  0  0  0  0
    2.4463   -1.7544   -5.0918 N   0  0  0  0  0
   -3.5068    0.8613   -0.8535 N   0  0  0  0  0
   -2.6836    0.7703    0.2309 N   0  0  0  0  0
   -2.9639   -4.2734   -3.8496 N   0  0  0  0  0
   -3.6484   -0.3257   -1.4814 C   0  0  0  0  0
   -3.7324   -2.5508   -2.4160 C   0  0  0  0  0
    1.2998   -3.4971   -4.2656 C   0  0  0  0  0
   -2.3135   -0.5298    0.2623 C   0  0  0  0  0
    2.2451   -1.5640   -3.7812 C   0  0  0  0  0
   -2.9102   -1.2012   -0.7964 C   0  0  0  0  0
   -1.4331   -0.9888    1.2935 C   0  0  0  0  0
   -2.9141   -2.5020   -1.2842 C   0  0  0  0  0
    1.5249   -2.6504   -3.2012 C   0  0  0  0  0
   -1.7397   -0.6687    2.6230 C   0  0  0  0  0
   -0.3069   -1.7461    0.9189 C   0  0  0  0  0
   -0.8931   -1.0981    3.6436 C   0  0  0  0  0
    0.5186   -2.1670    1.9722 C   0  0  0  0  0
    0.2316   -1.8560    3.3086 C   0  0  0  0  0
   -4.0312   -3.6719   -3.2383 C   0  0  0  0  0
   -1.6450   -5.8945   -4.9082 C   0  0  1  0  0
   -1.5645   -8.1797   -4.2930 C   0  0  0  0  0
   -4.0879    2.1445   -1.1748 C   0  0  0  0  0
   -3.0869   -5.4219   -4.7266 C   0  0  0  0  0
   -1.5972   -3.8242   -3.6904 C   0  0  0  0  0
    0.6250   -4.7930   -4.4277 C   0  0  0  0  0
    2.7578   -0.3481   -3.1357 C   0  0  0  0  0
   -0.8308   -4.5977   -4.7676 C   0  0  1  0  0
   -2.4303   -3.3713   -0.9482 H   0  0  0  0  0
    1.1743   -2.9048   -2.2447 H   0  0  0  0  0
   -2.6010   -0.1099    2.8433 H   0  0  0  0  0
   -0.1316   -1.9604   -0.0939 H   0  0  0  0  0
   -1.1064   -0.8508    4.6415 H   0  0  0  0  0
    1.3802   -2.7322    1.7703 H   0  0  0  0  0
    0.8757   -2.2011    4.0626 H   0  0  0  0  0
   -1.5423   -6.3427   -5.8522 H   0  0  0  0  0
   -0.7371   -8.5450   -4.8264 H   0  0  0  0  0
   -2.4181   -8.2158   -4.9034 H   0  0  0  0  0
   -1.7194   -8.7710   -3.4393 H   0  0  0  0  0
   -5.1257    2.1075   -1.0194 H   0  0  0  0  0
   -3.6677    2.8832   -0.5582 H   0  0  0  0  0
   -3.8926    2.3753   -2.1803 H   0  0  0  0  0
   -3.5255   -5.1247   -5.6331 H   0  0  0  0  0
   -3.6895   -6.1494   -4.2682 H   0  0  0  0  0
   -1.2634   -4.0553   -2.7221 H   0  0  0  0  0
   -1.5507   -2.7857   -3.8381 H   0  0  0  0  0
    1.0847   -5.3325   -5.2024 H   0  0  0  0  0
    0.6941   -5.3380   -3.5329 H   0  0  0  0  0
    3.0063   -0.5598   -2.1377 H   0  0  0  0  0
    3.6127   -0.0148   -3.6461 H   0  0  0  0  0
    2.0209    0.3994   -3.1619 H   0  0  0  0  0
   -0.8120   -4.0946   -5.6890 H   0  0  0  0  0
  1  9  1  0  0  0
  1 10  1  0  0  0
  2  5  1  0  0  0
  2 11  1  0  0  0
  3 23  2  0  0  0
  4 24  1  0  0  0
  4 25  1  0  0  0
  5 13  2  0  0  0
  6  7  1  0  0  0
  6  9  1  0  0  0
  6 26  1  0  0  0
  7 12  2  0  0  0
  8 23  1  0  0  0
  8 27  1  0  0  0
  8 28  1  0  0  0
  9 14  2  0  0  0
 10 16  2  0  0  0
 10 23  1  0  0  0
 11 17  2  0  0  0
 11 29  1  0  0  0
 12 14  1  0  0  0
 12 15  1  0  0  0
 13 17  1  0  0  0
 13 30  1  0  0  0
 14 16  1  0  0  0
 15 18  2  0  0  0
 15 19  1  0  0  0
 16 32  1  0  0  0
 17 33  1  0  0  0
 18 20  1  0  0  0
 18 34  1  0  0  0
 19 21  2  0  0  0
 19 35  1  0  0  0
 20 22  2  0  0  0
 20 36  1  0  0  0
 21 22  1  0  0  0
 21 37  1  0  0  0
 22 38  1  0  0  0
 24 27  1  0  0  0
 24 31  1  0  0  0
 24 39  1  0  0  0
 25 40  1  0  0  0
 25 41  1  0  0  0
 25 42  1  0  0  0
 26 43  1  0  0  0
 26 44  1  0  0  0
 26 45  1  0  0  0
 27 46  1  0  0  0
 27 47  1  0  0  0
 28 31  1  0  0  0
 28 48  1  0  0  0
 28 49  1  0  0  0
 29 31  1  0  0  0
 29 50  1  0  0  0
 29 51  1  0  0  0
 30 52  1  0  0  0
 30 53  1  0  0  0
 30 54  1  0  0  0
 31 55  1  0  0  0
M  END
> <QPhAR in domain>
True

> <s_m_source_file>
iis-007-000-000--007-499-999_filtered_optim.maegz

> <r_epik_Charging_Adjusted_Penalty>
0.0

> <PRICERANGE_1MG>
< 50

> <Name>
MolPort-046-554-736

> <i_m_Source_File_Index>
134085

> <i_lp_mmshare_version>
36015

> <PUBCHEM_EXT_DATASOURCE_URL>
https://www.molport.com

> <s_lp_Force_Field>
OPLS3

> <r_epik_Ionization_Penalty>
2.18548E-5

> <r_epik_State_Penalty>
0.0

> <IS_SC>
Yes

> <r_epik_Ionization_Penalty_Neutral>
2.18548E-5

> <s_m_Source_Path>
/home/mrgulotta/data_server/CADD/LIBRERIE/OTTIMIZZATE/MOLPORT/ALL_STOCK_COMPOUNDS_FILTERED_NEW

> <i_m_source_file_index>
134085

> <PUBCHEM_EXT_SUBSTANCE_URL>
https://www.molport.com/shop/molecule-link/MolPort-046-554-736

> <VERIFIED_AMOUNT_MG>
5

> <r_epik_Ionization_Penalty_Charging>
0.0

> <r_lp_Energy>
25.9259

> <QC_METHOD>
LCMS

> <QPhAR prediction>
6.795015630657437

> <i_epik_Tot_abs_Q>
0

> <i_epik_Tot_Q>
0

> <cdk:Title>
null

> <b_lp_Chiralities_Consistent>
1

> <s_m_entry_name>
iis-007-000-000--007-499-999_filtered.134085

> <i_f3d_flags>
0

> <PRICERANGE_5MG>
50 - 100

> <COMPOUND_STATE>
FILM

> <s_m_entry_id>
271764

> <Molecule_Name>
MolPort-046-554-736

> <Score>
0.9213828984005747

> <BEST_LEAD_TIME>
12

> <s_lp_Variant>
MolPort-046-554-736-1

> <s_m_Source_File>
iis-007-000-000--007-499-999_filtered.sdf

> <r_lp_tautomer_probability>
1.0

> <UNVERIFIED_AMOUNT_MG>
5.0

$$$$
MolPort-003-996-062
XX    ILIB07022204093D

 43 46  0  0  1  0              1 V2000
   -1.7417   -1.8076   -1.7104 S   0  0  0  0  0
    1.6948   -2.6963   -3.3486 S   0  0  0  0  0
   -3.5186   -2.1836   -5.1699 O   0  0  0  0  0
   -1.5059   -2.8340   -4.2285 O   0  0  0  0  0
   -2.7324   -0.5425    0.6160 N   0  0  0  0  0
   -3.8945    0.1024    0.9253 N   0  0  0  0  0
    2.9746   -1.5161   -5.2168 N   0  0  0  0  0
   -2.7246   -0.9863   -0.6592 C   0  0  0  0  0
    2.8643   -1.5459   -3.9033 C   0  0  0  0  0
    1.2832   -3.1123   -4.9590 C   0  0  0  0  0
   -2.9619   -1.6748   -2.9609 C   0  0  0  0  0
   -4.6191    0.0493   -0.2144 C   0  0  0  0  0
    2.0791   -2.3770   -5.8184 C   0  0  0  0  0
   -1.7563   -0.6584    1.5957 C   0  0  0  0  0
   -3.8955   -0.6245   -1.1880 C   0  0  0  0  0
   -4.0957   -0.9922   -2.5127 C   0  0  0  0  0
   -2.1309   -1.1416    2.8564 C   0  0  0  0  0
   -0.4375   -0.2909    1.2671 C   0  0  0  0  0
   -1.1694   -1.2598    3.8584 C   0  0  0  0  0
    0.5051   -0.4296    2.2969 C   0  0  0  0  0
    0.1506   -0.9084    3.5664 C   0  0  0  0  0
   -2.7217   -2.2334   -4.2480 C   0  0  0  0  0
   -1.1299   -3.4775   -5.4355 C   0  0  0  0  0
    0.2497   -4.1074   -5.2793 C   0  0  0  0  0
   -5.9570    0.6580   -0.2513 C   0  0  0  0  0
    2.0352   -2.4619   -7.2832 C   0  0  0  0  0
    3.3968   -0.9631   -3.2110 H   0  0  0  0  0
   -4.9076   -0.8405   -3.1610 H   0  0  0  0  0
   -3.1290   -1.4112    3.0400 H   0  0  0  0  0
   -0.2150    0.0596    0.3027 H   0  0  0  0  0
   -1.4434   -1.6074    4.8106 H   0  0  0  0  0
    1.5089   -0.1718    2.1281 H   0  0  0  0  0
    0.8937   -1.0012    4.3024 H   0  0  0  0  0
   -1.8288   -4.2267   -5.6652 H   0  0  0  0  0
   -1.1031   -2.7733   -6.2139 H   0  0  0  0  0
    0.4928   -4.5865   -6.1814 H   0  0  0  0  0
    0.1975   -4.8184   -4.5084 H   0  0  0  0  0
   -6.0677    1.3096    0.5645 H   0  0  0  0  0
   -6.0727    1.1948   -1.1462 H   0  0  0  0  0
   -6.6860   -0.0958   -0.1986 H   0  0  0  0  0
    1.3487   -3.2026   -7.5704 H   0  0  0  0  0
    1.7370   -1.5361   -7.6787 H   0  0  0  0  0
    2.9885   -2.7078   -7.6483 H   0  0  0  0  0
  1  8  1  0  0  0
  1 11  1  0  0  0
  2  9  1  0  0  0
  2 10  1  0  0  0
  3 22  2  0  0  0
  4 22  1  0  0  0
  4 23  1  0  0  0
  5  6  1  0  0  0
  5  8  1  0  0  0
  5 14  1  0  0  0
  6 12  2  0  0  0
  7  9  2  0  0  0
  7 13  1  0  0  0
  8 15  2  0  0  0
  9 27  1  0  0  0
 10 13  2  0  0  0
 10 24  1  0  0  0
 11 16  2  0  0  0
 11 22  1  0  0  0
 12 15  1  0  0  0
 12 25  1  0  0  0
 13 26  1  0  0  0
 14 17  2  0  0  0
 14 18  1  0  0  0
 15 16  1  0  0  0
 16 28  1  0  0  0
 17 19  1  0  0  0
 17 29  1  0  0  0
 18 20  2  0  0  0
 18 30  1  0  0  0
 19 21  2  0  0  0
 19 31  1  0  0  0
 20 21  1  0  0  0
 20 32  1  0  0  0
 21 33  1  0  0  0
 23 24  1  0  0  0
 23 34  1  0  0  0
 23 35  1  0  0  0
 24 36  1  0  0  0
 24 37  1  0  0  0
 25 38  1  0  0  0
 25 39  1  0  0  0
 25 40  1  0  0  0
 26 41  1  0  0  0
 26 42  1  0  0  0
 26 43  1  0  0  0
M  END
> <QPhAR in domain>
True

> <s_m_source_file>
iis-001-500-000--001-999-999_filtered_optim.maegz

> <PRICERANGE_50MG>
100 - 250

> <r_epik_Charging_Adjusted_Penalty>
0.0

> <PRICERANGE_1MG>
50 - 100

> <s_epik_Chemistry_Notes>
This compound has an ester and may undergo hydrolysis at high or low pH.

> <Name>
MolPort-003-996-062

> <i_m_Source_File_Index>
31327

> <i_lp_mmshare_version>
36015

> <PUBCHEM_EXT_DATASOURCE_URL>
https://www.molport.com

> <s_lp_Force_Field>
OPLS3

> <r_epik_Ionization_Penalty>
1.23908E-4

> <r_epik_State_Penalty>
0.0

> <IS_SC>
Yes

> <r_epik_Ionization_Penalty_Neutral>
1.23908E-4

> <s_m_Source_Path>
/home/mrgulotta/data_server/CADD/LIBRERIE/OTTIMIZZATE/MOLPORT/ALL_STOCK_COMPOUNDS_FILTERED_NEW

> <i_m_source_file_index>
31327

> <PUBCHEM_EXT_SUBSTANCE_URL>
https://www.molport.com/shop/molecule-link/MolPort-003-996-062

> <VERIFIED_AMOUNT_MG>
800

> <r_epik_Ionization_Penalty_Charging>
0.0

> <r_lp_Energy>
18.2489

> <QC_METHOD>
LCMS + NMR

> <QPhAR prediction>
6.794339087488315

> <i_epik_Tot_abs_Q>
0

> <i_epik_Tot_Q>
0

> <cdk:Title>
null

> <b_lp_Chiralities_Consistent>
1

> <s_m_entry_name>
iis-001-500-000--001-999-999_filtered.31327

> <i_f3d_flags>
0

> <PRICERANGE_5MG>
50 - 100

> <COMPOUND_STATE>
SOLID

> <s_m_entry_id>
31327

> <Molecule_Name>
MolPort-003-996-062

> <Score>
0.9257160660874195

> <BEST_LEAD_TIME>
10

> <s_lp_Variant>
MolPort-003-996-062-1

> <s_m_Source_File>
iis-001-500-000--001-999-999_filtered.sdf

> <r_lp_tautomer_probability>
1.0

> <UNVERIFIED_AMOUNT_MG>
800.0

$$$$
MolPort-005-898-783
XX    ILIB07022204093D

 55 59  0  0  1  0              1 V2000
   -3.2988   -1.3916   -4.4160 Cl  0  0  0  0  0
   -4.6836   -0.4496   -0.4875 S   0  0  0  0  0
   -6.2324    0.2548   -3.7842 O   0  0  0  0  0
   -2.0010   -0.8823    0.2930 N   0  0  0  0  0
   -0.8618   -1.2300   -0.3728 N   0  0  0  0  0
   -7.0547   -1.3784   -2.4541 N   0  0  0  0  0
   -3.5605   -1.0645   -2.7705 C   0  0  0  0  0
   -3.0645   -0.7979   -0.5347 C   0  0  0  0  0
   -4.7930   -0.7129   -2.2168 C   0  0  0  0  0
   -1.2544   -1.3652   -1.6597 C   0  0  0  0  0
   -1.9307   -0.6682    1.6626 C   0  0  0  0  0
   -2.6123   -1.0962   -1.7549 C   0  0  0  0  0
   -0.2942   -1.7334   -2.6553 C   0  0  0  0  0
    1.5229   -2.4697   -4.5898 C   0  0  0  0  0
   -2.6621    0.3949    2.2090 C   0  0  0  0  0
   -1.1333   -1.5366    2.4316 C   0  0  0  0  0
   -0.6025   -2.7920   -3.5195 C   0  0  0  0  0
    0.9094   -1.0054   -2.7207 C   0  0  0  0  0
    0.3202   -3.1729   -4.4922 C   0  0  0  0  0
    1.8110   -1.4111   -3.7158 C   0  0  0  0  0
   -2.6006    0.6343    3.5811 C   0  0  0  0  0
   -1.1011   -1.2715    3.8086 C   0  0  0  0  0
   -1.8232   -0.2109    4.3750 C   0  0  0  0  0
   -6.0449   -0.5591   -2.8789 C   0  0  0  0  0
   -6.9570   -2.3848   -1.3906 C   0  0  0  0  0
   -8.4062   -1.1958   -2.9805 C   0  0  0  0  0
    2.5234   -2.8359   -5.6250 C   0  0  0  0  0
   -8.9023   -3.6250   -2.4336 C   0  0  0  0  0
   -7.4688   -3.7354   -1.8823 C   0  0  0  0  0
   -8.9727   -2.5176   -3.4990 C   0  0  0  0  0
   -9.3672   -5.0020   -2.9531 C   0  0  0  0  0
   -3.2497    1.0028    1.5863 H   0  0  0  0  0
   -0.6118   -2.3204    1.9667 H   0  0  0  0  0
   -1.5221   -3.2910   -3.4312 H   0  0  0  0  0
    1.0829   -0.2166   -2.0498 H   0  0  0  0  0
    0.1249   -3.9721   -5.1446 H   0  0  0  0  0
    2.7234   -0.8976   -3.7959 H   0  0  0  0  0
   -3.1328    1.4376    3.9982 H   0  0  0  0  0
   -0.5250   -1.8750    4.4461 H   0  0  0  0  0
   -1.7729   -0.0573    5.4125 H   0  0  0  0  0
   -7.5338   -2.0812   -0.5674 H   0  0  0  0  0
   -5.9542   -2.4871   -1.0966 H   0  0  0  0  0
   -9.0328   -0.8357   -2.2188 H   0  0  0  0  0
   -8.3836   -0.5050   -3.7710 H   0  0  0  0  0
    3.3106   -3.3681   -5.1782 H   0  0  0  0  0
    2.9000   -1.9636   -6.0719 H   0  0  0  0  0
    2.0668   -3.4349   -6.3566 H   0  0  0  0  0
   -9.5458   -3.3041   -1.6684 H   0  0  0  0  0
   -7.4694   -4.4203   -1.0864 H   0  0  0  0  0
   -6.8433   -4.0891   -2.6480 H   0  0  0  0  0
   -9.9781   -2.3848   -3.7710 H   0  0  0  0  0
   -8.4218   -2.8299   -4.3366 H   0  0  0  0  0
  -10.3118   -4.9062   -3.4014 H   0  0  0  0  0
   -8.6787   -5.3599   -3.6605 H   0  0  0  0  0
   -9.4273   -5.6767   -2.1508 H   0  0  0  0  0
  1  7  1  0  0  0
  2  8  1  0  0  0
  2  9  1  0  0  0
  3 24  2  0  0  0
  4  5  1  0  0  0
  4  8  1  0  0  0
  4 11  1  0  0  0
  5 10  2  0  0  0
  6 24  1  0  0  0
  6 25  1  0  0  0
  6 26  1  0  0  0
  7  9  2  0  0  0
  7 12  1  0  0  0
  8 12  2  0  0  0
  9 24  1  0  0  0
 10 12  1  0  0  0
 10 13  1  0  0  0
 11 15  2  0  0  0
 11 16  1  0  0  0
 13 17  2  0  0  0
 13 18  1  0  0  0
 14 19  2  0  0  0
 14 20  1  0  0  0
 14 27  1  0  0  0
 15 21  1  0  0  0
 15 32  1  0  0  0
 16 22  2  0  0  0
 16 33  1  0  0  0
 17 19  1  0  0  0
 17 34  1  0  0  0
 18 20  2  0  0  0
 18 35  1  0  0  0
 19 36  1  0  0  0
 20 37  1  0  0  0
 21 23  2  0  0  0
 21 38  1  0  0  0
 22 23  1  0  0  0
 22 39  1  0  0  0
 23 40  1  0  0  0
 25 29  1  0  0  0
 25 41  1  0  0  0
 25 42  1  0  0  0
 26 30  1  0  0  0
 26 43  1  0  0  0
 26 44  1  0  0  0
 27 45  1  0  0  0
 27 46  1  0  0  0
 27 47  1  0  0  0
 28 29  1  0  0  0
 28 30  1  0  0  0
 28 31  1  0  0  0
 28 48  1  0  0  0
 29 49  1  0  0  0
 29 50  1  0  0  0
 30 51  1  0  0  0
 30 52  1  0  0  0
 31 53  1  0  0  0
 31 54  1  0  0  0
 31 55  1  0  0  0
M  END
> <QPhAR in domain>
True

> <s_m_source_file>
iis-002-500-000--002-999-999_filtered_optim.maegz

> <PRICERANGE_50MG>
100 - 250

> <r_epik_Charging_Adjusted_Penalty>
0.0

> <PRICERANGE_1MG>
50 - 100

> <Name>
MolPort-005-898-783

> <i_m_Source_File_Index>
22860

> <i_lp_mmshare_version>
36015

> <PUBCHEM_EXT_DATASOURCE_URL>
https://www.molport.com

> <s_lp_Force_Field>
OPLS3

> <r_epik_Ionization_Penalty>
5.17386E-7

> <r_epik_State_Penalty>
0.0

> <IS_SC>
Yes

> <r_epik_Ionization_Penalty_Neutral>
5.17386E-7

> <s_m_Source_Path>
/home/mrgulotta/data_server/CADD/LIBRERIE/OTTIMIZZATE/MOLPORT/ALL_STOCK_COMPOUNDS_FILTERED_NEW

> <i_m_source_file_index>
22860

> <PUBCHEM_EXT_SUBSTANCE_URL>
https://www.molport.com/shop/molecule-link/MolPort-005-898-783

> <VERIFIED_AMOUNT_MG>
100

> <r_epik_Ionization_Penalty_Charging>
0.0

> <r_lp_Energy>
43.5575

> <QC_METHOD>
LCMS

> <QPhAR prediction>
6.794339087488315

> <i_epik_Tot_abs_Q>
0

> <i_epik_Tot_Q>
0

> <cdk:Title>
null

> <b_lp_Chiralities_Consistent>
1

> <s_m_entry_name>
iis-002-500-000--002-999-999_filtered.22860

> <i_f3d_flags>
0

> <PRICERANGE_5MG>
50 - 100

> <COMPOUND_STATE>
SOLID

> <s_m_entry_id>
135653

> <Molecule_Name>
MolPort-005-898-783

> <Score>
0.9519404366341307

> <BEST_LEAD_TIME>
10

> <s_lp_Variant>
MolPort-005-898-783-1

> <s_m_Source_File>
iis-002-500-000--002-999-999_filtered.sdf

> <r_lp_tautomer_probability>
1.0

> <UNVERIFIED_AMOUNT_MG>
100.0

$$$$
MolPort-046-810-832
XX    ILIB07022204093D

 38 41  0  0  1  0              1 V2000
   -2.3594    0.8691    0.9121 S   0  0  0  0  0
   -1.4814   -0.5154   -1.1929 N   0  0  0  0  0
   -2.7383   -2.0469   -2.5605 N   0  0  0  0  0
    0.6797   -0.9858   -2.6250 N   0  0  0  0  0
   -0.7271    0.1261    6.8672 N   0  0  0  0  0
   -2.5723   -0.2596   -0.4276 C   0  0  0  0  0
   -1.8950   -0.2134    2.2256 C   0  0  0  0  0
   -1.6011   -1.3989   -2.2236 C   0  0  0  0  0
   -0.4272   -1.6597   -3.0088 C   0  0  0  0  0
   -3.7939   -1.7437   -1.7964 C   0  0  0  0  0
    1.8203   -1.1973   -3.3252 C   0  0  0  0  0
   -3.7715   -0.8584   -0.7324 C   0  0  0  0  0
   -1.2549   -0.6812    4.4688 C   0  0  0  0  0
   -1.6211    0.2822    3.5098 C   0  0  0  0  0
   -1.8120   -1.5811    1.9268 C   0  0  0  0  0
   -0.4698   -2.5410   -4.0723 C   0  0  0  0  0
    1.8560   -2.0586   -4.4219 C   0  0  0  0  0
   -1.1689   -2.0518    4.1914 C   0  0  0  0  0
   -1.4409   -2.5088    2.9033 C   0  0  0  0  0
    0.6995   -2.7520   -4.8008 C   0  0  0  0  0
   -0.9651   -0.2382    5.7910 C   0  0  0  0  0
   -5.1543   -2.3555   -1.9570 C   0  0  0  0  0
   -5.1074   -0.7681   -0.0747 C   0  0  0  0  0
   -6.0137   -1.3618   -1.1641 C   0  0  0  0  0
    2.7061   -0.7073   -3.0463 H   0  0  0  0  0
   -1.6959    1.3117    3.7022 H   0  0  0  0  0
   -2.0303   -1.9209    0.9576 H   0  0  0  0  0
   -1.3669   -3.0309   -4.3126 H   0  0  0  0  0
    2.7481   -2.1857   -4.9608 H   0  0  0  0  0
   -0.9013   -2.7254    4.9511 H   0  0  0  0  0
   -1.3716   -3.5279    2.6600 H   0  0  0  0  0
    0.6994   -3.4181   -5.6125 H   0  0  0  0  0
   -5.3990   -2.4020   -2.9770 H   0  0  0  0  0
   -5.1521   -3.3247   -1.5531 H   0  0  0  0  0
   -5.3215    0.2358    0.1465 H   0  0  0  0  0
   -5.0988   -1.3281    0.8135 H   0  0  0  0  0
   -6.8294   -1.8670   -0.7377 H   0  0  0  0  0
   -6.3651   -0.6110   -1.8085 H   0  0  0  0  0
  1  6  1  0  0  0
  1  7  1  0  0  0
  2  6  2  0  0  0
  2  8  1  0  0  0
  3  8  2  0  0  0
  3 10  1  0  0  0
  4  9  2  0  0  0
  4 11  1  0  0  0
  5 21  3  0  0  0
  6 12  1  0  0  0
  7 14  1  0  0  0
  7 15  2  0  0  0
  8  9  1  0  0  0
  9 16  1  0  0  0
 10 12  2  0  0  0
 10 22  1  0  0  0
 11 17  2  0  0  0
 11 25  1  0  0  0
 12 23  1  0  0  0
 13 14  2  0  0  0
 13 18  1  0  0  0
 13 21  1  0  0  0
 14 26  1  0  0  0
 15 19  1  0  0  0
 15 27  1  0  0  0
 16 20  2  0  0  0
 16 28  1  0  0  0
 17 20  1  0  0  0
 17 29  1  0  0  0
 18 19  2  0  0  0
 18 30  1  0  0  0
 19 31  1  0  0  0
 20 32  1  0  0  0
 22 24  1  0  0  0
 22 33  1  0  0  0
 22 34  1  0  0  0
 23 24  1  0  0  0
 23 35  1  0  0  0
 23 36  1  0  0  0
 24 37  1  0  0  0
 24 38  1  0  0  0
M  END
> <QPhAR in domain>
True

> <s_m_source_file>
iis-007-500-000--007-999-999_filtered_optim.maegz

> <PRICERANGE_50MG>
100 - 250

> <r_epik_Charging_Adjusted_Penalty>
0.0

> <PRICERANGE_1MG>
50 - 100

> <Name>
MolPort-046-810-832

> <i_m_Source_File_Index>
26231

> <i_lp_mmshare_version>
36015

> <PUBCHEM_EXT_DATASOURCE_URL>
https://www.molport.com

> <s_lp_Force_Field>
OPLS3

> <r_epik_Ionization_Penalty>
1.17296E-4

> <r_epik_State_Penalty>
0.0

> <IS_SC>
Yes

> <r_epik_Ionization_Penalty_Neutral>
1.17296E-4

> <s_m_Source_Path>
/home/mrgulotta/data_server/CADD/LIBRERIE/OTTIMIZZATE/MOLPORT/ALL_STOCK_COMPOUNDS_FILTERED_NEW

> <i_m_source_file_index>
26231

> <PUBCHEM_EXT_SUBSTANCE_URL>
https://www.molport.com/shop/molecule-link/MolPort-046-810-832

> <r_epik_Ionization_Penalty_Charging>
0.0

> <r_lp_Energy>
43.5702

> <QC_METHOD>
LCMS

> <QPhAR prediction>
6.794339087488315

> <i_epik_Tot_abs_Q>
0

> <i_epik_Tot_Q>
0

> <cdk:Title>
null

> <b_lp_Chiralities_Consistent>
1

> <s_m_entry_name>
iis-007-500-000--007-999-999_filtered.26231

> <i_f3d_flags>
0

> <PRICERANGE_5MG>
50 - 100

> <COMPOUND_STATE>
N/A

> <s_m_entry_id>
335239

> <Molecule_Name>
MolPort-046-810-832

> <Score>
0.9352473191399451

> <BEST_LEAD_TIME>
10

> <s_lp_Variant>
MolPort-046-810-832-1

> <s_m_Source_File>
iis-007-500-000--007-999-999_filtered.sdf

> <r_lp_tautomer_probability>
1.0

> <UNVERIFIED_AMOUNT_MG>
100.0

$$$$
MolPort-010-682-281
XX    ILIB07022204093D

 57 61  0  0  1  0              1 V2000
   -1.4219   -0.5549   -4.3516 O   0  0  0  0  0
   -0.0168    0.6194    3.0596 N   0  0  0  0  0
   -0.4015   -0.5334    3.6260 N   0  0  0  0  0
   -3.1523   -0.8306    0.3127 N   0  0  0  0  0
    0.1095   -1.9131   -3.2881 N   0  0  0  0  0
   -3.8213   -1.1274   -0.8174 C   0  0  0  0  0
   -1.8135   -0.6550    0.2440 C   0  0  0  0  0
   -0.4492    0.7710    1.7793 C   0  0  0  0  0
   -1.1392   -1.1348    2.6797 C   0  0  0  0  0
    0.7625    1.4907    3.8076 C   0  0  0  0  0
   -3.1699   -1.2529   -2.0615 C   0  0  0  0  0
   -1.1763   -0.3573    1.4912 C   0  0  0  0  0
   -1.7778   -1.0361   -2.0879 C   0  0  0  0  0
    2.2783    3.2529    5.2852 C   0  0  0  0  0
   -5.2012   -1.3184   -0.7627 C   0  0  0  0  0
   -1.0796   -0.7512   -0.9185 C   0  0  0  0  0
    0.3745    2.8350    3.8818 C   0  0  0  0  0
    1.8989    0.9749    4.4590 C   0  0  0  0  0
   -3.9229   -1.5742   -3.2080 C   0  0  0  0  0
    1.1460    3.7305    4.6211 C   0  0  0  0  0
    2.6475    1.9023    5.1992 C   0  0  0  0  0
   -5.9512   -1.6289   -1.9028 C   0  0  0  0  0
   -5.2988   -1.7617   -3.1260 C   0  0  0  0  0
   -1.0430   -1.1431   -3.3408 C   0  0  0  0  0
    0.9573   -2.0859   -4.4102 C   0  0  0  0  0
    3.1152    4.1738    6.0957 C   0  0  0  0  0
   -0.1129    1.9614    0.9834 C   0  0  0  0  0
    2.1152   -3.0459   -4.3633 C   0  0  0  0  0
    2.3711   -1.5703   -4.4141 C   0  0  0  0  0
    2.3115    4.7676    7.2520 C   0  0  0  0  0
    3.7188    5.2773    5.2285 C   0  0  0  0  0
    0.3697   -2.3745   -2.4281 H   0  0  0  0  0
   -1.5945   -2.0599    2.8780 H   0  0  0  0  0
   -5.7075   -1.2303    0.1529 H   0  0  0  0  0
   -0.0392   -0.6112   -0.8957 H   0  0  0  0  0
   -0.4905    3.1601    3.3832 H   0  0  0  0  0
    2.1368   -0.0441    4.3717 H   0  0  0  0  0
   -3.4461   -1.6747   -4.1381 H   0  0  0  0  0
    0.8899    4.7468    4.6843 H   0  0  0  0  0
    3.5061    1.5600    5.6974 H   0  0  0  0  0
   -6.9905   -1.7583   -1.8283 H   0  0  0  0  0
   -5.8479   -2.0039   -3.9876 H   0  0  0  0  0
    0.3916   -2.4241   -5.2275 H   0  0  0  0  0
    3.8966    3.6340    6.5435 H   0  0  0  0  0
   -0.8991    2.6550    1.0417 H   0  0  0  0  0
    0.7661    2.3964    1.3585 H   0  0  0  0  0
    0.0344    1.6826   -0.0182 H   0  0  0  0  0
    2.0774   -3.6810   -5.1986 H   0  0  0  0  0
    2.0594   -3.6189   -3.4852 H   0  0  0  0  0
    2.5394   -1.0168   -5.2903 H   0  0  0  0  0
    2.5214   -0.9547   -3.5769 H   0  0  0  0  0
    2.0420    4.0034    7.9197 H   0  0  0  0  0
    1.4447    5.2261    6.8766 H   0  0  0  0  0
    2.8956    5.4812    7.7541 H   0  0  0  0  0
    4.6511    5.5598    5.6203 H   0  0  0  0  0
    3.8440    4.9229    4.2481 H   0  0  0  0  0
    3.0761    6.1076    5.2212 H   0  0  0  0  0
  1 24  2  0  0  0
  2  3  1  0  0  0
  2  8  1  0  0  0
  2 10  1  0  0  0
  3  9  2  0  0  0
  4  6  2  0  0  0
  4  7  1  0  0  0
  5 24  1  0  0  0
  5 25  1  0  0  0
  5 32  1  0  0  0
  6 11  1  0  0  0
  6 15  1  0  0  0
  7 12  1  0  0  0
  7 16  2  0  0  0
  8 12  2  0  0  0
  8 27  1  0  0  0
  9 12  1  0  0  0
  9 33  1  0  0  0
 10 17  2  0  0  0
 10 18  1  0  0  0
 11 13  2  0  0  0
 11 19  1  0  0  0
 13 16  1  0  0  0
 13 24  1  0  0  0
 14 20  2  0  0  0
 14 21  1  0  0  0
 14 26  1  0  0  0
 15 22  2  0  0  0
 15 34  1  0  0  0
 16 35  1  0  0  0
 17 20  1  0  0  0
 17 36  1  0  0  0
 18 21  2  0  0  0
 18 37  1  0  0  0
 19 23  2  0  0  0
 19 38  1  0  0  0
 20 39  1  0  0  0
 21 40  1  0  0  0
 22 23  1  0  0  0
 22 41  1  0  0  0
 23 42  1  0  0  0
 25 28  1  0  0  0
 25 29  1  0  0  0
 25 43  1  0  0  0
 26 30  1  0  0  0
 26 31  1  0  0  0
 26 44  1  0  0  0
 27 45  1  0  0  0
 27 46  1  0  0  0
 27 47  1  0  0  0
 28 29  1  0  0  0
 28 48  1  0  0  0
 28 49  1  0  0  0
 29 50  1  0  0  0
 29 51  1  0  0  0
 30 52  1  0  0  0
 30 53  1  0  0  0
 30 54  1  0  0  0
 31 55  1  0  0  0
 31 56  1  0  0  0
 31 57  1  0  0  0
M  END
> <QPhAR in domain>
True

> <s_m_source_file>
iis-004-000-000--004-499-999_filtered_optim.maegz

> <r_epik_Charging_Adjusted_Penalty>
0.0

> <PRICERANGE_1MG>
50 - 100

> <Name>
MolPort-010-682-281

> <i_m_Source_File_Index>
43835

> <i_lp_mmshare_version>
36015

> <PUBCHEM_EXT_DATASOURCE_URL>
https://www.molport.com

> <s_lp_Force_Field>
OPLS3

> <r_epik_Ionization_Penalty>
2.10648E-5

> <r_epik_State_Penalty>
0.0

> <IS_SC>
Yes

> <r_epik_Ionization_Penalty_Neutral>
2.10648E-5

> <s_m_Source_Path>
/home/mrgulotta/data_server/CADD/LIBRERIE/OTTIMIZZATE/MOLPORT/ALL_STOCK_COMPOUNDS_FILTERED_NEW

> <i_m_source_file_index>
43835

> <PUBCHEM_EXT_SUBSTANCE_URL>
https://www.molport.com/shop/molecule-link/MolPort-010-682-281

> <VERIFIED_AMOUNT_MG>
5

> <r_epik_Ionization_Penalty_Charging>
0.0

> <r_lp_Energy>
56.0117

> <QC_METHOD>
NMR

> <QPhAR prediction>
6.792264752879033

> <i_epik_Tot_abs_Q>
0

> <i_epik_Tot_Q>
0

> <cdk:Title>
null

> <b_lp_Chiralities_Consistent>
1

> <s_m_entry_name>
iis-004-000-000--004-499-999_filtered.43835

> <i_f3d_flags>
0

> <PRICERANGE_5MG>
50 - 100

> <COMPOUND_STATE>
SOLID

> <s_m_entry_id>
114613

> <Molecule_Name>
MolPort-010-682-281

> <Score>
0.9265329104701211

> <BEST_LEAD_TIME>
10

> <s_lp_Variant>
MolPort-010-682-281-1

> <s_m_Source_File>
iis-004-000-000--004-499-999_filtered.sdf

> <r_lp_tautomer_probability>
1.0

> <UNVERIFIED_AMOUNT_MG>
5

$$$$
MolPort-006-579-112
XX    ILIB07022204093D

 37 40  0  0  1  0              1 V2000
    0.6709   -2.5771   -3.6260 Br  0  0  0  0  0
   -1.7422   -0.5981   -3.4590 S   0  0  0  0  0
   -0.7366   -1.4561    5.5840 F   0  0  0  0  0
    0.3525    0.8550    4.8457 F   0  0  0  0  0
   -4.7285    0.6865    1.7661 O   0  0  0  0  0
   -3.1328   -1.1177    0.0422 N   0  0  0  0  0
   -6.3633    0.0355    0.2742 N   0  0  0  0  0
   -0.7876   -1.7969   -2.6748 C   0  0  0  0  0
   -2.7217   -0.4553   -2.0361 C   0  0  0  0  0
   -1.0283   -0.9980    4.3555 C   0  0  0  0  0
   -0.4452    0.2188    3.9736 C   0  0  0  0  0
   -2.3096   -1.2930   -1.0420 C   0  0  0  0  0
   -4.0645   -0.1655   -0.2771 C   0  0  0  0  0
   -2.1035   -1.1309    2.2383 C   0  0  0  0  0
   -1.1860   -2.0869   -1.3877 C   0  0  0  0  0
   -3.8486    0.2782   -1.5659 C   0  0  0  0  0
   -1.8804   -1.7129    3.5010 C   0  0  0  0  0
   -0.6855    0.7646    2.7109 C   0  0  0  0  0
   -1.5332    0.0846    1.8374 C   0  0  0  0  0
   -5.0488    0.2108    0.6785 C   0  0  0  0  0
   -2.9971   -1.8403    1.2861 C   0  0  0  0  0
   -7.4629    0.3960    1.0938 C   0  0  0  0  0
   -8.3867   -0.6536    1.6533 C   0  0  0  0  0
   -8.8789    0.2886    0.5977 C   0  0  0  0  0
   -6.5641   -0.3614   -0.6326 H   0  0  0  0  0
   -0.6669   -2.8072   -0.8271 H   0  0  0  0  0
   -4.3152    0.9813   -2.1907 H   0  0  0  0  0
   -2.3041   -2.6191    3.8199 H   0  0  0  0  0
   -0.2312    1.6702    2.4353 H   0  0  0  0  0
   -1.7455    0.4758    0.8864 H   0  0  0  0  0
   -3.9408   -1.9459    1.7343 H   0  0  0  0  0
   -2.5913   -2.7900    1.0967 H   0  0  0  0  0
   -7.1133    0.8958    1.9485 H   0  0  0  0  0
   -8.4938   -0.5101    2.6879 H   0  0  0  0  0
   -7.9846   -1.6064    1.4719 H   0  0  0  0  0
   -8.8745    0.0943   -0.4342 H   0  0  0  0  0
   -9.3836    1.1907    0.7818 H   0  0  0  0  0
  1  8  1  0  0  0
  2  8  1  0  0  0
  2  9  1  0  0  0
  3 10  1  0  0  0
  4 11  1  0  0  0
  5 20  2  0  0  0
  6 12  1  0  0  0
  6 13  1  0  0  0
  6 21  1  0  0  0
  7 20  1  0  0  0
  7 22  1  0  0  0
  7 25  1  0  0  0
  8 15  2  0  0  0
  9 12  2  0  0  0
  9 16  1  0  0  0
 10 11  2  0  0  0
 10 17  1  0  0  0
 11 18  1  0  0  0
 12 15  1  0  0  0
 13 16  2  0  0  0
 13 20  1  0  0  0
 14 17  2  0  0  0
 14 19  1  0  0  0
 14 21  1  0  0  0
 15 26  1  0  0  0
 16 27  1  0  0  0
 17 28  1  0  0  0
 18 19  2  0  0  0
 18 29  1  0  0  0
 19 30  1  0  0  0
 21 31  1  0  0  0
 21 32  1  0  0  0
 22 23  1  0  0  0
 22 24  1  0  0  0
 22 33  1  0  0  0
 23 24  1  0  0  0
 23 34  1  0  0  0
 23 35  1  0  0  0
 24 36  1  0  0  0
 24 37  1  0  0  0
M  END
> <QPhAR in domain>
True

> <s_m_source_file>
lmiis_added_2020-03_update_filtered_optim.maegz

> <r_epik_Charging_Adjusted_Penalty>
0.0

> <Name>
MolPort-006-579-112

> <i_m_Source_File_Index>
270

> <i_lp_mmshare_version>
36015

> <PUBCHEM_EXT_DATASOURCE_URL>
https://www.molport.com

> <s_lp_Force_Field>
OPLS3

> <r_epik_Ionization_Penalty>
1.03273E-7

> <r_epik_State_Penalty>
0.0

> <IS_SC>
Yes

> <r_epik_Ionization_Penalty_Neutral>
1.03273E-7

> <s_m_Source_Path>
/home/mrgulotta/data_server/CADD/LIBRERIE/OTTIMIZZATE/MOLPORT/ALL_STOCK_COMPOUNDS_FILTERED_NEW

> <i_m_source_file_index>
270

> <PUBCHEM_EXT_SUBSTANCE_URL>
https://www.molport.com/shop/molecule-link/MolPort-006-579-112

> <VERIFIED_AMOUNT_MG>
5

> <r_epik_Ionization_Penalty_Charging>
0.0

> <r_lp_Energy>
27.0888

> <QC_METHOD>
LCMS

> <QPhAR prediction>
6.792264752879033

> <i_epik_Tot_abs_Q>
0

> <i_epik_Tot_Q>
0

> <cdk:Title>
null

> <b_lp_Chiralities_Consistent>
1

> <s_m_entry_name>
lmiis_added_2020-03_update_filtered.270

> <i_f3d_flags>
0

> <PRICERANGE_5MG>
50 - 100

> <COMPOUND_STATE>
SOLID

> <s_m_entry_id>
346069

> <Score>
0.9267351345223572

> <Molecule_Name>
MolPort-006-579-112

> <BEST_LEAD_TIME>
10

> <s_lp_Variant>
MolPort-006-579-112-1

> <s_m_Source_File>
lmiis_added_2020-03_update_filtered.sdf

> <r_lp_tautomer_probability>
1.0

> <UNVERIFIED_AMOUNT_MG>
5

$$$$
MolPort-006-578-956
XX    ILIB07022204093D

 52 55  0  0  1  0              1 V2000
    0.6692   -2.5771   -3.6328 Br  0  0  0  0  0
   -1.7476   -0.6023   -3.4639 S   0  0  0  0  0
   -5.8340   -0.6145    1.1387 O   0  0  0  0  0
   -2.5088    5.2520    4.4727 O   0  0  0  0  0
   -3.1279   -1.1172    0.0420 N   0  0  0  0  0
   -4.3594    3.8379    2.8184 N   0  0  0  0  0
   -5.0117    1.5400    1.0698 N   0  0  0  0  0
   -0.7883   -1.7974   -2.6797 C   0  0  0  0  0
   -2.7236   -0.4583   -2.0391 C   0  0  0  0  0
   -2.3076   -1.2930   -1.0439 C   0  0  0  0  0
   -4.0625   -0.1671   -0.2771 C   0  0  0  0  0
   -2.0918   -1.1235    2.2354 C   0  0  0  0  0
   -0.4711    0.2169    4.0117 C   0  0  0  0  0
   -1.1826   -2.0859   -1.3911 C   0  0  0  0  0
   -3.8506    0.2742   -1.5674 C   0  0  0  0  0
   -2.6611   -0.1982    3.1201 C   0  0  0  0  0
   -0.7161   -1.4194    2.2021 C   0  0  0  0  0
   -1.8408    0.4888    4.0137 C   0  0  0  0  0
    0.0778   -0.7153    3.1201 C   0  0  0  0  0
   -5.0449    0.2094    0.6804 C   0  0  0  0  0
   -2.8018    3.8779    4.7227 C   0  0  0  0  0
   -2.6035    5.5410    3.0801 C   0  0  0  0  0
   -2.9863   -1.8364    1.2866 C   0  0  0  0  0
   -4.2129    3.5381    4.2520 C   0  0  0  0  0
   -4.0117    5.2480    2.5742 C   0  0  0  0  0
   -5.6992    3.5664    2.3320 C   0  0  0  0  0
   -5.9102    2.0732    2.0547 C   0  0  0  0  0
    0.4326    0.9160    4.9629 C   0  0  0  0  0
   -4.3390    2.1703    0.6571 H   0  0  0  0  0
   -0.6605   -2.8041   -0.8307 H   0  0  0  0  0
   -4.3201    0.9752   -2.1924 H   0  0  0  0  0
   -3.6970   -0.0273    3.1062 H   0  0  0  0  0
   -0.3477   -2.1273    1.5197 H   0  0  0  0  0
   -2.2341    1.1989    4.6797 H   0  0  0  0  0
    1.1108   -0.9032    3.1271 H   0  0  0  0  0
   -2.1154    3.2741    4.2063 H   0  0  0  0  0
   -2.7305    3.6866    5.7527 H   0  0  0  0  0
   -1.9185    4.9459    2.5518 H   0  0  0  0  0
   -2.3846    6.5550    2.9174 H   0  0  0  0  0
   -3.9282   -1.9436    1.7380 H   0  0  0  0  0
   -2.5785   -2.7854    1.0980 H   0  0  0  0  0
   -4.9037    4.1073    4.8010 H   0  0  0  0  0
   -4.3922    2.5166    4.4161 H   0  0  0  0  0
   -4.0537    5.4455    1.5438 H   0  0  0  0  0
   -4.6928    5.8687    3.0776 H   0  0  0  0  0
   -6.4011    3.8713    3.0510 H   0  0  0  0  0
   -5.8610    4.0944    1.4389 H   0  0  0  0  0
   -6.9004    1.9516    1.7274 H   0  0  0  0  0
   -5.7766    1.5633    2.9628 H   0  0  0  0  0
    0.1017    1.9032    5.0987 H   0  0  0  0  0
    0.4254    0.4145    5.8853 H   0  0  0  0  0
    1.4089    0.9241    4.5765 H   0  0  0  0  0
  1  8  1  0  0  0
  2  8  1  0  0  0
  2  9  1  0  0  0
  3 20  2  0  0  0
  4 21  1  0  0  0
  4 22  1  0  0  0
  5 10  1  0  0  0
  5 11  1  0  0  0
  5 23  1  0  0  0
  6 24  1  0  0  0
  6 25  1  0  0  0
  6 26  1  0  0  0
  7 20  1  0  0  0
  7 27  1  0  0  0
  7 29  1  0  0  0
  8 14  2  0  0  0
  9 10  2  0  0  0
  9 15  1  0  0  0
 10 14  1  0  0  0
 11 15  2  0  0  0
 11 20  1  0  0  0
 12 16  2  0  0  0
 12 17  1  0  0  0
 12 23  1  0  0  0
 13 18  2  0  0  0
 13 19  1  0  0  0
 13 28  1  0  0  0
 14 30  1  0  0  0
 15 31  1  0  0  0
 16 18  1  0  0  0
 16 32  1  0  0  0
 17 19  2  0  0  0
 17 33  1  0  0  0
 18 34  1  0  0  0
 19 35  1  0  0  0
 21 24  1  0  0  0
 21 36  1  0  0  0
 21 37  1  0  0  0
 22 25  1  0  0  0
 22 38  1  0  0  0
 22 39  1  0  0  0
 23 40  1  0  0  0
 23 41  1  0  0  0
 24 42  1  0  0  0
 24 43  1  0  0  0
 25 44  1  0  0  0
 25 45  1  0  0  0
 26 27  1  0  0  0
 26 46  1  0  0  0
 26 47  1  0  0  0
 27 48  1  0  0  0
 27 49  1  0  0  0
 28 50  1  0  0  0
 28 51  1  0  0  0
 28 52  1  0  0  0
M  END
> <QPhAR in domain>
True

> <s_m_source_file>
iis-002-500-000--002-999-999_filtered_optim.maegz

> <r_epik_Charging_Adjusted_Penalty>
0.0782226

> <PRICERANGE_1MG>
50 - 100

> <Name>
MolPort-006-578-956

> <i_m_Source_File_Index>
40488

> <i_lp_mmshare_version>
36015

> <PUBCHEM_EXT_DATASOURCE_URL>
https://www.molport.com

> <s_lp_Force_Field>
OPLS3

> <r_epik_Ionization_Penalty>
0.0877443

> <r_epik_State_Penalty>
0.0782226

> <IS_SC>
Yes

> <r_epik_Ionization_Penalty_Neutral>
0.0877443

> <s_m_Source_Path>
/home/mrgulotta/data_server/CADD/LIBRERIE/OTTIMIZZATE/MOLPORT/ALL_STOCK_COMPOUNDS_FILTERED_NEW

> <i_m_source_file_index>
40488

> <PUBCHEM_EXT_SUBSTANCE_URL>
https://www.molport.com/shop/molecule-link/MolPort-006-578-956

> <VERIFIED_AMOUNT_MG>
15

> <r_epik_Ionization_Penalty_Charging>
0.0

> <r_lp_Energy>
22.7677

> <QC_METHOD>
LCMS

> <QPhAR prediction>
6.792264752879033

> <i_epik_Tot_abs_Q>
0

> <i_epik_Tot_Q>
0

> <cdk:Title>
null

> <b_lp_Chiralities_Consistent>
1

> <s_m_entry_name>
iis-002-500-000--002-999-999_filtered.40488

> <i_f3d_flags>
0

> <PRICERANGE_5MG>
50 - 100

> <COMPOUND_STATE>
SOLID

> <s_m_entry_id>
153281

> <Score>
0.9268100706258041

> <Molecule_Name>
MolPort-006-578-956

> <BEST_LEAD_TIME>
10

> <s_lp_Variant>
MolPort-006-578-956-1

> <s_m_Source_File>
iis-002-500-000--002-999-999_filtered.sdf

> <UNVERIFIED_AMOUNT_MG>
15.0

$$$$
MolPort-006-516-683
XX    ILIB07022204093D

 55 58  0  0  1  0              1 V2000
   -4.1152   -0.5969    4.8457 Cl  0  0  0  0  0
   -1.3760    0.5583    5.8574 Cl  0  0  0  0  0
   -4.3477    0.2298   -0.7166 S   0  0  0  0  0
   -5.8418   -0.0483   -4.3086 O   0  0  0  0  0
   -7.9316   -1.5303   -1.2183 O   0  0  0  0  0
   -1.9688   -0.9697    0.2292 N   0  0  0  0  0
   -1.0195   -1.7715   -0.3347 N   0  0  0  0  0
   -6.5684    1.0288   -2.4033 N   0  0  0  0  0
   -9.2773    0.3467   -1.4546 N   0  0  0  0  0
   -2.7939   -0.4054    3.7607 C   0  0  0  0  0
   -1.5752    0.1093    4.2090 C   0  0  0  0  0
   -2.9443   -0.6479   -0.6470 C   0  0  0  0  0
   -4.5508   -0.2201   -2.3984 C   0  0  0  0  0
   -1.4414   -1.9448   -1.6074 C   0  0  0  0  0
   -1.8232   -0.6025    1.5596 C   0  0  0  0  0
   -2.6270   -1.2485   -1.7959 C   0  0  0  0  0
   -2.9141   -0.7742    2.4219 C   0  0  0  0  0
   -0.4944    0.2704    3.3291 C   0  0  0  0  0
   -3.5127   -1.0410   -2.8467 C   0  0  0  0  0
   -0.5820   -0.0831    1.9746 C   0  0  0  0  0
   -5.6758    0.2527   -3.1279 C   0  0  0  0  0
   -8.7227   -0.7151   -0.7542 C   0  0  0  0  0
   -7.7754    1.5527   -2.9785 C   0  0  0  0  0
   -8.9805    0.6160   -2.8320 C   0  0  0  0  0
   -0.6487   -2.7715   -2.5264 C   0  0  0  0  0
   -9.1719   -0.7341    0.6685 C   0  0  0  0  0
   -8.5195   -1.8828    1.4395 C   0  0  0  0  0
  -10.6875   -0.9619    0.7651 C   0  0  0  0  0
   -9.5898   -2.9639    1.4985 C   0  0  0  0  0
  -10.8672   -2.1670    1.6812 C   0  0  0  0  0
    0.3617   -1.9395   -3.2480 C   0  0  0  0  0
   -6.3798    1.2439   -1.4347 H   0  0  0  0  0
   -9.9227    0.9729   -0.9948 H   0  0  0  0  0
   -3.8166   -1.1769    2.0673 H   0  0  0  0  0
    0.4132    0.6657    3.6792 H   0  0  0  0  0
   -3.5069   -1.3858   -3.8385 H   0  0  0  0  0
    0.2025    0.0173    1.2839 H   0  0  0  0  0
   -7.6303    1.7194   -4.0050 H   0  0  0  0  0
   -8.0227    2.4584   -2.5084 H   0  0  0  0  0
   -9.8105    1.0711   -3.2864 H   0  0  0  0  0
   -8.7615   -0.2846   -3.3254 H   0  0  0  0  0
   -1.2849   -3.2196   -3.2313 H   0  0  0  0  0
   -0.1480   -3.5174   -1.9828 H   0  0  0  0  0
   -8.9089    0.1713    1.1307 H   0  0  0  0  0
   -8.2467   -1.5509    2.3976 H   0  0  0  0  0
   -7.6639   -2.2082    0.9251 H   0  0  0  0  0
  -11.0749   -1.1497   -0.1926 H   0  0  0  0  0
  -11.1452   -0.1063    1.1662 H   0  0  0  0  0
   -9.3948   -3.6057    2.3063 H   0  0  0  0  0
   -9.5811   -3.5142    0.6043 H   0  0  0  0  0
  -10.9897   -1.8390    2.6711 H   0  0  0  0  0
  -11.7163   -2.7087    1.3844 H   0  0  0  0  0
    0.0050   -0.9561   -3.3385 H   0  0  0  0  0
    1.2625   -1.9369   -2.7085 H   0  0  0  0  0
    0.5274   -2.3410   -4.2039 H   0  0  0  0  0
  1 10  1  0  0  0
  2 11  1  0  0  0
  3 12  1  0  0  0
  3 13  1  0  0  0
  4 21  2  0  0  0
  5 22  2  0  0  0
  6  7  1  0  0  0
  6 12  1  0  0  0
  6 15  1  0  0  0
  7 14  2  0  0  0
  8 21  1  0  0  0
  8 23  1  0  0  0
  8 32  1  0  0  0
  9 22  1  0  0  0
  9 24  1  0  0  0
  9 33  1  0  0  0
 10 11  2  0  0  0
 10 17  1  0  0  0
 11 18  1  0  0  0
 12 16  2  0  0  0
 13 19  2  0  0  0
 13 21  1  0  0  0
 14 16  1  0  0  0
 14 25  1  0  0  0
 15 17  2  0  0  0
 15 20  1  0  0  0
 16 19  1  0  0  0
 17 34  1  0  0  0
 18 20  2  0  0  0
 18 35  1  0  0  0
 19 36  1  0  0  0
 20 37  1  0  0  0
 22 26  1  0  0  0
 23 24  1  0  0  0
 23 38  1  0  0  0
 23 39  1  0  0  0
 24 40  1  0  0  0
 24 41  1  0  0  0
 25 31  1  0  0  0
 25 42  1  0  0  0
 25 43  1  0  0  0
 26 27  1  0  0  0
 26 28  1  0  0  0
 26 44  1  0  0  0
 27 29  1  0  0  0
 27 45  1  0  0  0
 27 46  1  0  0  0
 28 30  1  0  0  0
 28 47  1  0  0  0
 28 48  1  0  0  0
 29 30  1  0  0  0
 29 49  1  0  0  0
 29 50  1  0  0  0
 30 51  1  0  0  0
 30 52  1  0  0  0
 31 53  1  0  0  0
 31 54  1  0  0  0
 31 55  1  0  0  0
M  END
> <QPhAR in domain>
True

> <s_m_source_file>
iis-002-500-000--002-999-999_filtered_optim.maegz

> <r_epik_Charging_Adjusted_Penalty>
0.0

> <PRICERANGE_1MG>
50 - 100

> <Name>
MolPort-006-516-683

> <i_m_Source_File_Index>
36396

> <i_lp_mmshare_version>
36015

> <PUBCHEM_EXT_DATASOURCE_URL>
https://www.molport.com

> <s_lp_Force_Field>
OPLS3

> <r_epik_Ionization_Penalty>
9.03696E-6

> <r_epik_State_Penalty>
0.0

> <IS_SC>
Yes

> <r_epik_Ionization_Penalty_Neutral>
9.03696E-6

> <s_m_Source_Path>
/home/mrgulotta/data_server/CADD/LIBRERIE/OTTIMIZZATE/MOLPORT/ALL_STOCK_COMPOUNDS_FILTERED_NEW

> <i_m_source_file_index>
36396

> <PUBCHEM_EXT_SUBSTANCE_URL>
https://www.molport.com/shop/molecule-link/MolPort-006-516-683

> <VERIFIED_AMOUNT_MG>
1

> <r_epik_Ionization_Penalty_Charging>
0.0

> <r_lp_Energy>
26.1394

> <QC_METHOD>
LCMS

> <QPhAR prediction>
6.792264752879033

> <i_epik_Tot_abs_Q>
0

> <i_epik_Tot_Q>
0

> <cdk:Title>
null

> <b_lp_Chiralities_Consistent>
1

> <s_m_entry_name>
iis-002-500-000--002-999-999_filtered.36396

> <i_f3d_flags>
0

> <COMPOUND_STATE>
SOLID

> <s_m_entry_id>
149189

> <Score>
0.9473982960340903

> <Molecule_Name>
MolPort-006-516-683

> <BEST_LEAD_TIME>
10

> <s_lp_Variant>
MolPort-006-516-683-1

> <s_m_Source_File>
iis-002-500-000--002-999-999_filtered.sdf

> <r_lp_tautomer_probability>
1.0

> <UNVERIFIED_AMOUNT_MG>
1.0

$$$$
MolPort-006-579-103
XX    ILIB07022204093D

 39 41  0  0  1  0              1 V2000
    0.6709   -2.5771   -3.6260 Br  0  0  0  0  0
   -1.7422   -0.5981   -3.4590 S   0  0  0  0  0
   -2.4297   -2.8848    3.8545 F   0  0  0  0  0
    0.3524    0.8550    4.8457 F   0  0  0  0  0
   -4.7285    0.6865    1.7661 O   0  0  0  0  0
   -3.1328   -1.1177    0.0422 N   0  0  0  0  0
   -6.3633    0.0355    0.2742 N   0  0  0  0  0
   -0.7876   -1.7969   -2.6748 C   0  0  0  0  0
   -2.7217   -0.4553   -2.0361 C   0  0  0  0  0
   -1.8740   -1.7168    3.4980 C   0  0  0  0  0
   -0.4454    0.2189    3.9736 C   0  0  0  0  0
   -2.3096   -1.2930   -1.0420 C   0  0  0  0  0
   -4.0645   -0.1655   -0.2771 C   0  0  0  0  0
   -2.1035   -1.1309    2.2383 C   0  0  0  0  0
   -1.1855   -2.0869   -1.3877 C   0  0  0  0  0
   -3.8486    0.2782   -1.5659 C   0  0  0  0  0
   -1.0229   -1.0015    4.3535 C   0  0  0  0  0
   -0.6917    0.7683    2.7139 C   0  0  0  0  0
   -1.5391    0.0883    1.8403 C   0  0  0  0  0
   -5.0488    0.2108    0.6785 C   0  0  0  0  0
   -2.9971   -1.8403    1.2861 C   0  0  0  0  0
   -7.4766    0.4004    1.1040 C   0  0  0  0  0
   -8.6758   -0.4878    0.7798 C   0  0  0  0  0
   -7.8203    1.8682    0.8474 C   0  0  0  0  0
   -6.5641   -0.3614   -0.6326 H   0  0  0  0  0
   -0.6660   -2.8069   -0.8272 H   0  0  0  0  0
   -4.3152    0.9813   -2.1907 H   0  0  0  0  0
   -0.8021   -1.3772    5.3088 H   0  0  0  0  0
   -0.2419    1.6768    2.4403 H   0  0  0  0  0
   -1.7556    0.4821    0.8913 H   0  0  0  0  0
   -3.9408   -1.9459    1.7343 H   0  0  0  0  0
   -2.5913   -2.7900    1.0967 H   0  0  0  0  0
   -7.2199    0.2657    2.1132 H   0  0  0  0  0
   -8.6010   -0.8291   -0.2103 H   0  0  0  0  0
   -9.5614    0.0646    0.8936 H   0  0  0  0  0
   -8.6895   -1.3096    1.4332 H   0  0  0  0  0
   -8.8576    2.0054    0.9356 H   0  0  0  0  0
   -7.5129    2.1356   -0.1203 H   0  0  0  0  0
   -7.3264    2.4714    1.5508 H   0  0  0  0  0
  1  8  1  0  0  0
  2  8  1  0  0  0
  2  9  1  0  0  0
  3 10  1  0  0  0
  4 11  1  0  0  0
  5 20  2  0  0  0
  6 12  1  0  0  0
  6 13  1  0  0  0
  6 21  1  0  0  0
  7 20  1  0  0  0
  7 22  1  0  0  0
  7 25  1  0  0  0
  8 15  2  0  0  0
  9 12  2  0  0  0
  9 16  1  0  0  0
 10 14  2  0  0  0
 10 17  1  0  0  0
 11 17  2  0  0  0
 11 18  1  0  0  0
 12 15  1  0  0  0
 13 16  2  0  0  0
 13 20  1  0  0  0
 14 19  1  0  0  0
 14 21  1  0  0  0
 15 26  1  0  0  0
 16 27  1  0  0  0
 17 28  1  0  0  0
 18 19  2  0  0  0
 18 29  1  0  0  0
 19 30  1  0  0  0
 21 31  1  0  0  0
 21 32  1  0  0  0
 22 23  1  0  0  0
 22 24  1  0  0  0
 22 33  1  0  0  0
 23 34  1  0  0  0
 23 35  1  0  0  0
 23 36  1  0  0  0
 24 37  1  0  0  0
 24 38  1  0  0  0
 24 39  1  0  0  0
M  END
> <QPhAR in domain>
True

> <s_m_source_file>
iis-002-500-000--002-999-999_filtered_optim.maegz

> <r_epik_Charging_Adjusted_Penalty>
0.0

> <PRICERANGE_1MG>
50 - 100

> <Name>
MolPort-006-579-103

> <i_m_Source_File_Index>
40545

> <i_lp_mmshare_version>
36015

> <PUBCHEM_EXT_DATASOURCE_URL>
https://www.molport.com

> <s_lp_Force_Field>
OPLS3

> <r_epik_Ionization_Penalty>
1.03273E-7

> <r_epik_State_Penalty>
0.0

> <IS_SC>
Yes

> <r_epik_Ionization_Penalty_Neutral>
1.03273E-7

> <s_m_Source_Path>
/home/mrgulotta/data_server/CADD/LIBRERIE/OTTIMIZZATE/MOLPORT/ALL_STOCK_COMPOUNDS_FILTERED_NEW

> <i_m_source_file_index>
40545

> <PUBCHEM_EXT_SUBSTANCE_URL>
https://www.molport.com/shop/molecule-link/MolPort-006-579-103

> <VERIFIED_AMOUNT_MG>
1

> <r_epik_Ionization_Penalty_Charging>
0.0

> <r_lp_Energy>
22.6157

> <QC_METHOD>
LCMS

> <QPhAR prediction>
6.792264752879033

> <i_epik_Tot_abs_Q>
0

> <i_epik_Tot_Q>
0

> <cdk:Title>
null

> <b_lp_Chiralities_Consistent>
1

> <s_m_entry_name>
iis-002-500-000--002-999-999_filtered.40545

> <i_f3d_flags>
0

> <COMPOUND_STATE>
SOLID

> <s_m_entry_id>
153338

> <Score>
0.9267357369076811

> <Molecule_Name>
MolPort-006-579-103

> <BEST_LEAD_TIME>
10

> <s_lp_Variant>
MolPort-006-579-103-1

> <s_m_Source_File>
iis-002-500-000--002-999-999_filtered.sdf

> <r_lp_tautomer_probability>
1.0

> <UNVERIFIED_AMOUNT_MG>
1.0

$$$$
MolPort-035-694-475
XX    ILIB07022204093D

 52 56  0  0  1  0              1 V2000
    2.3818   -2.5361   -1.4399 S   0  0  0  0  0
   -2.4629   -0.7939    5.3867 O   0  0  0  0  0
    2.7354   -3.9102   -1.1406 O   0  0  0  0  0
    3.3057   -1.4580   -1.1484 O   0  0  0  0  0
   -1.6196   -0.8032    0.7131 N   0  0  0  0  0
   -1.6978   -0.8289   -1.7095 N   0  0  0  0  0
   -3.7871   -0.8628    1.1758 N   0  0  0  0  0
    0.8662   -2.1826   -0.7312 N   0  0  0  0  0
    1.9761   -2.4414   -3.1602 C   0  0  0  0  0
   -3.1221   -0.8218    4.1992 C   0  0  0  0  0
   -1.1318   -0.7527    5.0957 C   0  0  0  0  0
   -2.2607   -0.8303   -0.4918 C   0  0  0  0  0
   -2.5752   -0.8228    1.7114 C   0  0  0  0  0
   -3.6084   -0.8643   -0.1843 C   0  0  0  0  0
   -2.6221   -0.8618   -2.7021 C   0  0  0  0  0
   -2.2324   -0.8025    3.1514 C   0  0  0  0  0
    1.3311   -2.3359   -5.8359 C   0  0  0  0  0
    1.5435   -3.6055   -3.8086 C   0  0  0  0  0
    2.0986   -1.1953   -3.8047 C   0  0  0  0  0
   -0.9429   -0.7605    3.7305 C   0  0  0  0  0
   -4.5254   -0.8975   -1.2441 C   0  0  0  0  0
   -4.0098   -0.8870   -2.5430 C   0  0  0  0  0
    1.2256   -3.5566   -5.1641 C   0  0  0  0  0
    1.7637   -1.1816   -5.1660 C   0  0  0  0  0
   -0.1872   -0.7629    0.8970 C   0  0  2  0  0
    0.5461   -0.7520   -0.4409 C   0  0  0  0  0
    0.4347   -3.0156    0.4229 C   0  0  0  0  0
    0.9841   -2.2412   -7.2773 C   0  0  0  0  0
    0.3219   -2.0244    1.5737 C   0  0  0  0  0
   -0.4623   -1.9077   -7.4512 C   0  0  0  0  0
   -4.1715   -0.8532    4.1819 H   0  0  0  0  0
   -0.4254   -0.7212    5.8719 H   0  0  0  0  0
   -2.3144   -0.8704   -3.7060 H   0  0  0  0  0
    1.4611   -4.5050   -3.2732 H   0  0  0  0  0
    2.4231   -0.3549   -3.2653 H   0  0  0  0  0
    0.0294   -0.7368    3.3349 H   0  0  0  0  0
   -5.5560   -0.9288   -1.0458 H   0  0  0  0  0
   -4.6349   -0.8975   -3.3866 H   0  0  0  0  0
    0.9116   -4.4149   -5.6810 H   0  0  0  0  0
    1.8445   -0.2725   -5.6851 H   0  0  0  0  0
    0.0734    0.1055    1.4267 H   0  0  0  0  0
   -0.0593   -0.3663   -1.2073 H   0  0  0  0  0
    1.4365   -0.1983   -0.3860 H   0  0  0  0  0
   -0.4855   -3.4703    0.2017 H   0  0  0  0  0
    1.1554   -3.7563    0.6088 H   0  0  0  0  0
    1.1791   -3.1606   -7.7454 H   0  0  0  0  0
    1.5624   -1.4895   -7.7279 H   0  0  0  0  0
    1.2482   -1.8286    2.0277 H   0  0  0  0  0
   -0.3673   -2.3326    2.3034 H   0  0  0  0  0
   -1.0495   -2.7096   -7.1128 H   0  0  0  0  0
   -0.6922   -1.0467   -6.8959 H   0  0  0  0  0
   -0.6614   -1.7324   -8.4671 H   0  0  0  0  0
  1  3  2  0  0  0
  1  4  2  0  0  0
  1  8  1  0  0  0
  1  9  1  0  0  0
  2 10  1  0  0  0
  2 11  1  0  0  0
  5 12  1  0  0  0
  5 13  1  0  0  0
  5 25  1  0  0  0
  6 12  2  0  0  0
  6 15  1  0  0  0
  7 13  2  0  0  0
  7 14  1  0  0  0
  8 26  1  0  0  0
  8 27  1  0  0  0
  9 18  2  0  0  0
  9 19  1  0  0  0
 10 16  2  0  0  0
 10 31  1  0  0  0
 11 20  2  0  0  0
 11 32  1  0  0  0
 12 14  1  0  0  0
 13 16  1  0  0  0
 14 21  2  0  0  0
 15 22  2  0  0  0
 15 33  1  0  0  0
 16 20  1  0  0  0
 17 23  2  0  0  0
 17 24  1  0  0  0
 17 28  1  0  0  0
 18 23  1  0  0  0
 18 34  1  0  0  0
 19 24  2  0  0  0
 19 35  1  0  0  0
 20 36  1  0  0  0
 21 22  1  0  0  0
 21 37  1  0  0  0
 22 38  1  0  0  0
 23 39  1  0  0  0
 24 40  1  0  0  0
 25 26  1  0  0  0
 25 29  1  0  0  0
 25 41  1  0  0  0
 26 42  1  0  0  0
 26 43  1  0  0  0
 27 29  1  0  0  0
 27 44  1  0  0  0
 27 45  1  0  0  0
 28 30  1  0  0  0
 28 46  1  0  0  0
 28 47  1  0  0  0
 29 48  1  0  0  0
 29 49  1  0  0  0
 30 50  1  0  0  0
 30 51  1  0  0  0
 30 52  1  0  0  0
M  END
> <QPhAR in domain>
True

> <s_m_source_file>
iis-005-500-000--005-999-999_filtered_optim.maegz

> <r_epik_Charging_Adjusted_Penalty>
2.22892E-4

> <PRICERANGE_1MG>
50 - 100

> <Name>
MolPort-035-694-475

> <i_m_Source_File_Index>
121913

> <i_lp_mmshare_version>
36015

> <PUBCHEM_EXT_DATASOURCE_URL>
https://www.molport.com

> <s_lp_Force_Field>
OPLS3

> <r_epik_Ionization_Penalty>
2.23512E-4

> <r_epik_State_Penalty>
0.0

> <IS_SC>
Yes

> <r_epik_Ionization_Penalty_Neutral>
6.19737E-7

> <s_m_Source_Path>
/home/mrgulotta/data_server/CADD/LIBRERIE/OTTIMIZZATE/MOLPORT/ALL_STOCK_COMPOUNDS_FILTERED_NEW

> <i_m_source_file_index>
121913

> <PUBCHEM_EXT_SUBSTANCE_URL>
https://www.molport.com/shop/molecule-link/MolPort-035-694-475

> <VERIFIED_AMOUNT_MG>
30

> <r_epik_Ionization_Penalty_Charging>
2.22892E-4

> <r_lp_Energy>
39.5031

> <QC_METHOD>
NMR

> <QPhAR prediction>
6.787359199323558

> <i_epik_Tot_abs_Q>
0

> <i_epik_Tot_Q>
0

> <cdk:Title>
null

> <b_lp_Chiralities_Consistent>
1

> <s_m_entry_name>
iis-005-500-000--005-999-999_filtered.121913

> <i_f3d_flags>
0

> <PRICERANGE_5MG>
50 - 100

> <COMPOUND_STATE>
SOLID

> <s_m_entry_id>
267337

> <Molecule_Name>
MolPort-035-694-475

> <Score>
0.9161901106960831

> <BEST_LEAD_TIME>
10

> <s_lp_Variant>
MolPort-035-694-475-1

> <s_m_Source_File>
iis-005-500-000--005-999-999_filtered.sdf

> <r_lp_tautomer_probability>
1.0

> <UNVERIFIED_AMOUNT_MG>
30

$$$$
MolPort-002-806-055
XX    ILIB07022204093D

 41 45  0  0  1  0              1 V2000
   -0.2372   -2.9785    5.0293 Cl  0  0  0  0  0
    0.8965   -0.0865    5.4922 Cl  0  0  0  0  0
   -1.4648    1.6875   -1.4971 S   0  0  0  0  0
   -3.1016   -1.1353   -4.8516 N   0  0  0  0  0
   -4.2949   -0.6077   -4.6152 N   0  0  0  0  0
   -2.6055   -1.4263   -3.6416 N   0  0  0  0  0
   -2.4209   -1.1738    0.7825 N   0  0  0  0  0
   -4.5605   -0.5627   -3.2666 N   0  0  0  0  0
   -3.4785   -1.9854    0.9277 N   0  0  0  0  0
   -0.5876   -1.7144    3.9160 C   0  0  0  0  0
   -0.0851   -0.4274    4.1191 C   0  0  0  0  0
   -1.1792    0.1307   -0.8364 C   0  0  0  0  0
    0.2087    2.0400   -1.6016 C   0  0  0  0  0
   -3.5029   -1.0767   -2.6729 C   0  0  0  0  0
   -2.2510   -0.7197   -0.4878 C   0  0  0  0  0
   -4.0293   -2.0293   -0.2949 C   0  0  0  0  0
   -1.3481   -2.0029   -3.5293 C   0  0  0  0  0
   -1.6387   -0.9089    1.8975 C   0  0  0  0  0
   -3.2744   -1.2642   -1.2227 C   0  0  0  0  0
   -1.3657   -1.9585    2.7852 C   0  0  0  0  0
   -0.3678    0.6084    3.2178 C   0  0  0  0  0
    0.1724   -0.1109   -0.7214 C   0  0  0  0  0
    0.9739    0.9658   -1.1919 C   0  0  0  0  0
   -1.1528    0.4009    2.0732 C   0  0  0  0  0
   -0.2795   -1.4116   -4.2168 C   0  0  0  0  0
   -1.2114   -3.1484   -2.7217 C   0  0  0  0  0
    0.9912   -1.9775   -4.1230 C   0  0  0  0  0
    0.0822   -3.6865   -2.6455 C   0  0  0  0  0
    1.1646   -3.1123   -3.3281 C   0  0  0  0  0
    0.5268    2.9800   -1.9447 H   0  0  0  0  0
   -4.9068   -2.5830   -0.4558 H   0  0  0  0  0
   -1.7416   -2.9221    2.6046 H   0  0  0  0  0
    0.0113    1.5723    3.3901 H   0  0  0  0  0
    0.5109   -1.0194   -0.3182 H   0  0  0  0  0
    2.0211    1.0140   -1.2516 H   0  0  0  0  0
   -1.3853    1.1458    1.3706 H   0  0  0  0  0
   -0.4399   -0.5505   -4.7957 H   0  0  0  0  0
   -2.0479   -3.5436   -2.2252 H   0  0  0  0  0
    1.7960   -1.5502   -4.6447 H   0  0  0  0  0
    0.2612   -4.5430   -2.0652 H   0  0  0  0  0
    2.1155   -3.5478   -3.2350 H   0  0  0  0  0
  1 10  1  0  0  0
  2 11  1  0  0  0
  3 12  1  0  0  0
  3 13  1  0  0  0
  4  5  2  0  0  0
  4  6  1  0  0  0
  5  8  1  0  0  0
  6 14  1  0  0  0
  6 17  1  0  0  0
  7  9  1  0  0  0
  7 15  1  0  0  0
  7 18  1  0  0  0
  8 14  2  0  0  0
  9 16  2  0  0  0
 10 11  2  0  0  0
 10 20  1  0  0  0
 11 21  1  0  0  0
 12 15  1  0  0  0
 12 22  2  0  0  0
 13 23  2  0  0  0
 13 30  1  0  0  0
 14 19  1  0  0  0
 15 19  2  0  0  0
 16 19  1  0  0  0
 16 31  1  0  0  0
 17 25  2  0  0  0
 17 26  1  0  0  0
 18 20  2  0  0  0
 18 24  1  0  0  0
 20 32  1  0  0  0
 21 24  2  0  0  0
 21 33  1  0  0  0
 22 23  1  0  0  0
 22 34  1  0  0  0
 23 35  1  0  0  0
 24 36  1  0  0  0
 25 27  1  0  0  0
 25 37  1  0  0  0
 26 28  2  0  0  0
 26 38  1  0  0  0
 27 29  2  0  0  0
 27 39  1  0  0  0
 28 29  1  0  0  0
 28 40  1  0  0  0
 29 41  1  0  0  0
M  END
> <QPhAR in domain>
True

> <s_m_source_file>
iis-001-000-000--001-499-999_minus_1_wrong_filtered_optim.maegz

> <PRICERANGE_50MG>
50 - 100

> <r_epik_Charging_Adjusted_Penalty>
0.0

> <PRICERANGE_1MG>
< 50

> <Name>
MolPort-002-806-055

> <i_m_Source_File_Index>
29329

> <i_lp_mmshare_version>
36015

> <PUBCHEM_EXT_DATASOURCE_URL>
https://www.molport.com

> <s_lp_Force_Field>
OPLS3

> <r_epik_Ionization_Penalty>
2.09153E-8

> <r_epik_State_Penalty>
0.0

> <IS_SC>
Yes

> <r_epik_Ionization_Penalty_Neutral>
2.09153E-8

> <s_m_Source_Path>
/home/mrgulotta/data_server/CADD/LIBRERIE/OTTIMIZZATE/MOLPORT/ALL_STOCK_COMPOUNDS_FILTERED_NEW

> <i_m_source_file_index>
29329

> <PUBCHEM_EXT_SUBSTANCE_URL>
https://www.molport.com/shop/molecule-link/MolPort-002-806-055

> <VERIFIED_AMOUNT_MG>
200

> <r_epik_Ionization_Penalty_Charging>
0.0

> <r_lp_Energy>
35.5577

> <QPhAR prediction>
6.787359199323558

> <i_epik_Tot_abs_Q>
0

> <i_epik_Tot_Q>
0

> <cdk:Title>
null

> <b_lp_Chiralities_Consistent>
1

> <s_m_entry_name>
iis-001-000-000--001-499-999_minus_1_wrong_filtered.29329

> <i_f3d_flags>
0

> <PRICERANGE_5MG>
< 50

> <COMPOUND_STATE>
N/A

> <s_m_entry_id>
115078

> <Molecule_Name>
MolPort-002-806-055

> <Score>
0.925434434178416

> <BEST_LEAD_TIME>
10

> <s_lp_Variant>
MolPort-002-806-055-1

> <s_m_Source_File>
iis-001-000-000--001-499-999_minus_1_wrong_filtered.sdf

> <r_lp_tautomer_probability>
1.0

> <UNVERIFIED_AMOUNT_MG>
200.0

$$$$
MolPort-035-694-338
XX    ILIB07022204093D

 59 63  0  0  1  0              1 V2000
    2.3564   -1.5996   -6.8906 O   0  0  0  0  0
   -0.4923   -0.8459    6.3867 O   0  0  0  0  0
   -0.0604   -5.5547   -2.5605 O   0  0  0  0  0
   -1.3179   -1.3057    0.0298 N   0  0  0  0  0
   -1.6016   -1.5029   -2.3691 N   0  0  0  0  0
   -3.2656   -0.4010    0.5813 N   0  0  0  0  0
    0.1758   -3.6660   -1.3418 N   0  0  0  0  0
    1.8320   -2.2920   -5.8242 C   0  0  0  0  0
   -0.9075   -0.8289    5.0742 C   0  0  0  0  0
   -2.0098   -1.1616   -1.1382 C   0  0  0  0  0
   -2.1074   -0.8328    1.0610 C   0  0  0  0  0
   -3.2178   -0.5947   -0.7759 C   0  0  0  0  0
   -2.5342   -1.2261   -3.3145 C   0  0  0  0  0
   -1.6821   -0.8364    2.4316 C   0  0  0  0  0
    0.8359   -3.6533   -3.6465 C   0  0  0  0  0
   -2.1650   -0.3224    4.7402 C   0  0  0  0  0
   -0.0453   -1.3276    4.0879 C   0  0  0  0  0
    0.5518   -2.8447   -5.9043 C   0  0  0  0  0
    2.6055   -2.4287   -4.6621 C   0  0  0  0  0
   -4.1504   -0.3260   -1.7881 C   0  0  0  0  0
   -3.7881   -0.6462   -3.0996 C   0  0  0  0  0
   -2.5596   -0.3362    3.4033 C   0  0  0  0  0
   -0.4058   -1.3501    2.7314 C   0  0  0  0  0
    0.0458   -3.5254   -4.7969 C   0  0  0  0  0
    2.1309   -3.1133   -3.5322 C   0  0  0  0  0
    0.2877   -4.3750   -2.5068 C   0  0  0  0  0
    2.0381   -0.2202   -6.8145 C   0  0  0  0  0
    0.1922    0.3610    6.7285 C   0  0  0  0  0
    0.0103   -1.8608    0.1511 C   0  0  2  0  0
    0.5664   -2.2764   -1.2100 C   0  0  0  0  0
   -0.3485   -4.2207   -0.1139 C   0  0  0  0  0
   -0.0156   -3.1709    0.9402 C   0  0  0  0  0
    0.6160   -0.0403   -7.3125 C   0  0  0  0  0
   -2.3430   -1.4508   -4.3222 H   0  0  0  0  0
   -2.7933    0.0592    5.4899 H   0  0  0  0  0
    0.9000   -1.6982    4.3555 H   0  0  0  0  0
   -0.0095   -2.7435   -6.7859 H   0  0  0  0  0
    3.5687   -2.0128   -4.6206 H   0  0  0  0  0
   -5.0793    0.0998   -1.5466 H   0  0  0  0  0
   -4.4279   -0.4629   -3.9117 H   0  0  0  0  0
   -3.5049    0.0238    3.1216 H   0  0  0  0  0
    0.2066   -1.7170    1.9614 H   0  0  0  0  0
   -0.9185   -3.9402   -4.8203 H   0  0  0  0  0
    2.6744   -3.2364   -2.6423 H   0  0  0  0  0
    2.1176    0.1029   -5.8186 H   0  0  0  0  0
    2.7046    0.3264   -7.4141 H   0  0  0  0  0
   -0.4871    1.1616    6.7252 H   0  0  0  0  0
    0.6151    0.2647    7.6847 H   0  0  0  0  0
    0.9516    0.5435    6.0267 H   0  0  0  0  0
    0.6528   -1.1430    0.5687 H   0  0  0  0  0
    0.1469   -1.7190   -1.9947 H   0  0  0  0  0
    1.6131   -2.2019   -1.2483 H   0  0  0  0  0
   -1.3835   -4.3686   -0.2105 H   0  0  0  0  0
    0.1195   -5.1398    0.0828 H   0  0  0  0  0
    0.9238   -3.3329    1.3805 H   0  0  0  0  0
   -0.7484   -3.1134    1.6900 H   0  0  0  0  0
    0.4708    0.9580   -7.6038 H   0  0  0  0  0
    0.4504   -0.6724   -8.1344 H   0  0  0  0  0
   -0.0572   -0.2820   -6.5438 H   0  0  0  0  0
  1  8  1  0  0  0
  1 27  1  0  0  0
  2  9  1  0  0  0
  2 28  1  0  0  0
  3 26  2  0  0  0
  4 10  1  0  0  0
  4 11  1  0  0  0
  4 29  1  0  0  0
  5 10  2  0  0  0
  5 13  1  0  0  0
  6 11  2  0  0  0
  6 12  1  0  0  0
  7 26  1  0  0  0
  7 30  1  0  0  0
  7 31  1  0  0  0
  8 18  2  0  0  0
  8 19  1  0  0  0
  9 16  2  0  0  0
  9 17  1  0  0  0
 10 12  1  0  0  0
 11 14  1  0  0  0
 12 20  2  0  0  0
 13 21  2  0  0  0
 13 34  1  0  0  0
 14 22  2  0  0  0
 14 23  1  0  0  0
 15 24  2  0  0  0
 15 25  1  0  0  0
 15 26  1  0  0  0
 16 22  1  0  0  0
 16 35  1  0  0  0
 17 23  2  0  0  0
 17 36  1  0  0  0
 18 24  1  0  0  0
 18 37  1  0  0  0
 19 25  2  0  0  0
 19 38  1  0  0  0
 20 21  1  0  0  0
 20 39  1  0  0  0
 21 40  1  0  0  0
 22 41  1  0  0  0
 23 42  1  0  0  0
 24 43  1  0  0  0
 25 44  1  0  0  0
 27 33  1  0  0  0
 27 45  1  0  0  0
 27 46  1  0  0  0
 28 47  1  0  0  0
 28 48  1  0  0  0
 28 49  1  0  0  0
 29 30  1  0  0  0
 29 32  1  0  0  0
 29 50  1  0  0  0
 30 51  1  0  0  0
 30 52  1  0  0  0
 31 32  1  0  0  0
 31 53  1  0  0  0
 31 54  1  0  0  0
 32 55  1  0  0  0
 32 56  1  0  0  0
 33 57  1  0  0  0
 33 58  1  0  0  0
 33 59  1  0  0  0
M  END
> <QPhAR in domain>
True

> <s_m_source_file>
iis-005-500-000--005-999-999_filtered_optim.maegz

> <r_epik_Charging_Adjusted_Penalty>
1.61645E-4

> <PRICERANGE_1MG>
50 - 100

> <Name>
MolPort-035-694-338

> <i_m_Source_File_Index>
121871

> <i_lp_mmshare_version>
36015

> <PUBCHEM_EXT_DATASOURCE_URL>
https://www.molport.com

> <s_lp_Force_Field>
OPLS3

> <r_epik_Ionization_Penalty>
1.66571E-4

> <r_epik_State_Penalty>
0.0

> <IS_SC>
Yes

> <r_epik_Ionization_Penalty_Neutral>
4.92607E-6

> <s_m_Source_Path>
/home/mrgulotta/data_server/CADD/LIBRERIE/OTTIMIZZATE/MOLPORT/ALL_STOCK_COMPOUNDS_FILTERED_NEW

> <i_m_source_file_index>
121871

> <PUBCHEM_EXT_SUBSTANCE_URL>
https://www.molport.com/shop/molecule-link/MolPort-035-694-338

> <VERIFIED_AMOUNT_MG>
15

> <r_epik_Ionization_Penalty_Charging>
1.61645E-4

> <r_lp_Energy>
62.0616

> <QC_METHOD>
LCMS

> <QPhAR prediction>
6.787359199323558

> <i_epik_Tot_abs_Q>
0

> <i_epik_Tot_Q>
0

> <cdk:Title>
null

> <b_lp_Chiralities_Consistent>
1

> <s_m_entry_name>
iis-005-500-000--005-999-999_filtered.121871

> <i_f3d_flags>
0

> <PRICERANGE_5MG>
50 - 100

> <COMPOUND_STATE>
SOLID

> <s_m_entry_id>
267295

> <Molecule_Name>
MolPort-035-694-338

> <Score>
0.9310238649050401

> <BEST_LEAD_TIME>
10

> <s_lp_Variant>
MolPort-035-694-338-1

> <s_m_Source_File>
iis-005-500-000--005-999-999_filtered.sdf

> <r_lp_tautomer_probability>
1.0

> <UNVERIFIED_AMOUNT_MG>
15

$$$$
MolPort-046-592-079
XX    ILIB07022204093D

 39 41  0  0  1  0              1 V2000
    0.3915   -1.8989   -2.8594 Cl  0  0  0  0  0
   -2.1709   -0.1645    3.1084 S   0  0  0  0  0
   -6.1973   -0.8679   -2.9551 O   0  0  0  0  0
    0.2217   -0.6980    2.3916 N   0  0  0  0  0
   -2.6494   -0.7192    0.2325 N   0  0  0  0  0
   -0.7803   -1.4463   -1.6836 C   0  0  0  0  0
   -1.0059   -0.6255    1.9131 C   0  0  0  0  0
   -0.9661   -0.1316    4.3262 C   0  0  0  0  0
   -4.8613   -1.0215   -2.6641 C   0  0  0  0  0
   -3.0439   -0.9451   -1.0347 C   0  0  0  0  0
   -1.3413   -0.8704    0.5383 C   0  0  0  0  0
    0.2502   -0.4410    3.7461 C   0  0  0  0  0
   -2.1367   -1.3262   -2.0439 C   0  0  0  0  0
   -4.3906   -0.8003   -1.3657 C   0  0  0  0  0
   -0.3717   -1.2354   -0.3705 C   0  0  0  0  0
   -3.9619   -1.4072   -3.6543 C   0  0  0  0  0
   -2.6113   -1.5571   -3.3506 C   0  0  0  0  0
   -6.9102   -2.0918   -2.7705 C   0  0  0  0  0
    1.5312   -0.5020    4.4629 C   0  0  0  0  0
   -5.3281   -0.4021   -0.2833 C   0  0  0  0  0
    2.5107    0.5369    3.9199 C   0  0  0  0  0
    2.1318   -1.9058    4.3945 C   0  0  0  0  0
   -1.2271    0.0988    5.3168 H   0  0  0  0  0
    0.6381   -1.3558   -0.1091 H   0  0  0  0  0
   -4.3017   -1.5855   -4.6317 H   0  0  0  0  0
   -1.9440   -1.8457   -4.1082 H   0  0  0  0  0
   -6.2592   -2.8218   -2.3887 H   0  0  0  0  0
   -7.6993   -1.9387   -2.0950 H   0  0  0  0  0
   -7.2961   -2.4145   -3.6922 H   0  0  0  0  0
    1.3806   -0.2493    5.4709 H   0  0  0  0  0
   -5.6332   -1.2555    0.2470 H   0  0  0  0  0
   -4.8454    0.2624    0.3709 H   0  0  0  0  0
   -6.1679    0.0680   -0.7030 H   0  0  0  0  0
    3.3467    0.5940    4.5526 H   0  0  0  0  0
    2.8195    0.2567    2.9563 H   0  0  0  0  0
    2.0391    1.4741    3.8776 H   0  0  0  0  0
    3.1779   -1.8365    4.3373 H   0  0  0  0  0
    1.8632   -2.4437    5.2553 H   0  0  0  0  0
    1.7669   -2.4016    3.5439 H   0  0  0  0  0
  1  6  1  0  0  0
  2  7  1  0  0  0
  2  8  1  0  0  0
  3  9  1  0  0  0
  3 18  1  0  0  0
  4  7  2  0  0  0
  4 12  1  0  0  0
  5 10  2  0  0  0
  5 11  1  0  0  0
  6 13  2  0  0  0
  6 15  1  0  0  0
  7 11  1  0  0  0
  8 12  2  0  0  0
  8 23  1  0  0  0
  9 14  2  0  0  0
  9 16  1  0  0  0
 10 13  1  0  0  0
 10 14  1  0  0  0
 11 15  2  0  0  0
 12 19  1  0  0  0
 13 17  1  0  0  0
 14 20  1  0  0  0
 15 24  1  0  0  0
 16 17  2  0  0  0
 16 25  1  0  0  0
 17 26  1  0  0  0
 18 27  1  0  0  0
 18 28  1  0  0  0
 18 29  1  0  0  0
 19 21  1  0  0  0
 19 22  1  0  0  0
 19 30  1  0  0  0
 20 31  1  0  0  0
 20 32  1  0  0  0
 20 33  1  0  0  0
 21 34  1  0  0  0
 21 35  1  0  0  0
 21 36  1  0  0  0
 22 37  1  0  0  0
 22 38  1  0  0  0
 22 39  1  0  0  0
M  END
> <QPhAR in domain>
True

> <s_m_source_file>
iis-007-000-000--007-499-999_filtered_optim.maegz

> <PRICERANGE_50MG>
100 - 250

> <r_epik_Charging_Adjusted_Penalty>
0.0

> <PRICERANGE_1MG>
100 - 250

> <Name>
MolPort-046-592-079

> <i_m_Source_File_Index>
145310

> <i_lp_mmshare_version>
36015

> <PUBCHEM_EXT_DATASOURCE_URL>
https://www.molport.com

> <s_lp_Force_Field>
OPLS3

> <r_epik_Ionization_Penalty>
1.28131E-6

> <r_epik_State_Penalty>
0.0

> <r_epik_Ionization_Penalty_Neutral>
1.28131E-6

> <s_m_Source_Path>
/home/mrgulotta/data_server/CADD/LIBRERIE/OTTIMIZZATE/MOLPORT/ALL_STOCK_COMPOUNDS_FILTERED_NEW

> <i_m_source_file_index>
145310

> <PUBCHEM_EXT_SUBSTANCE_URL>
https://www.molport.com/shop/molecule-link/MolPort-046-592-079

> <VERIFIED_AMOUNT_MG>
2000

> <r_epik_Ionization_Penalty_Charging>
0.0

> <r_lp_Energy>
30.9268

> <QPhAR prediction>
6.787359199323558

> <i_epik_Tot_abs_Q>
0

> <i_epik_Tot_Q>
0

> <cdk:Title>
null

> <b_lp_Chiralities_Consistent>
1

> <s_m_entry_name>
iis-007-000-000--007-499-999_filtered.145310

> <i_f3d_flags>
0

> <PRICERANGE_5MG>
100 - 250

> <COMPOUND_STATE>
N/A

> <s_m_entry_id>
282989

> <Molecule_Name>
MolPort-046-592-079

> <Score>
0.9373506048149123

> <BEST_LEAD_TIME>
10

> <s_lp_Variant>
MolPort-046-592-079-1

> <IS_BB>
Yes

> <s_m_Source_File>
iis-007-000-000--007-499-999_filtered.sdf

> <r_lp_tautomer_probability>
1.0

> <UNVERIFIED_AMOUNT_MG>
2000.0

$$$$
MolPort-009-073-825
XX    ILIB07022204093D

 50 53  0  0  1  0              1 V2000
   -2.4580    2.1084   -3.4424 O   0  0  0  0  0
   -2.6416   -1.4009    0.0614 N   0  0  0  0  0
   -0.4341    1.0493   -3.7695 N   0  0  0  0  0
   -3.0000   -1.7192   -1.1968 C   0  0  0  0  0
   -1.9639   -0.2496    0.2688 C   0  0  0  0  0
   -2.6943   -0.8884   -2.2949 C   0  0  0  0  0
   -1.6074    0.0080    1.6353 C   0  0  0  0  0
   -2.0088    0.3130   -2.0254 C   0  0  0  0  0
   -0.2416    0.1299    1.9551 C   0  0  0  0  0
   -0.9670    0.4972    4.2695 C   0  0  0  0  0
   -3.6943   -2.9062   -1.4292 C   0  0  0  0  0
   -1.6182    0.6348   -0.7300 C   0  0  0  0  0
   -3.0879   -1.2798   -3.5898 C   0  0  0  0  0
   -2.6338    0.1176    2.5830 C   0  0  0  0  0
    0.0455    0.3811    3.3057 C   0  0  0  0  0
   -2.3125    0.3749    3.9150 C   0  0  0  0  0
   -4.0918   -3.2900   -2.7139 C   0  0  0  0  0
   -3.7783   -2.4707   -3.7949 C   0  0  0  0  0
   -1.6680    1.2212   -3.1123 C   0  0  0  0  0
    0.5703    0.0911   -3.4023 C   0  0  0  0  0
   -0.0773    1.9395   -4.8652 C   0  0  0  0  0
    0.8252    0.0118    0.9282 C   0  0  0  0  0
   -0.5842    0.7539    5.6816 C   0  0  0  0  0
    0.3795   -1.2012   -4.1016 C   0  0  0  0  0
    1.2988   -2.3779   -3.8945 C   0  0  0  0  0
   -0.1193   -2.4365   -3.3975 C   0  0  0  0  0
   -3.9329   -3.5405   -0.6272 H   0  0  0  0  0
   -1.0826    1.5072   -0.4965 H   0  0  0  0  0
   -2.8608   -0.6705   -4.4142 H   0  0  0  0  0
   -3.6352    0.0061    2.2876 H   0  0  0  0  0
    1.0418    0.4877    3.6196 H   0  0  0  0  0
   -3.0594    0.4767    4.6460 H   0  0  0  0  0
   -4.6200   -4.1866   -2.8541 H   0  0  0  0  0
   -4.0632   -2.7519   -4.7656 H   0  0  0  0  0
    0.5255   -0.0840   -2.3680 H   0  0  0  0  0
    1.5189    0.4648   -3.6532 H   0  0  0  0  0
   -0.1579    1.4233   -5.7760 H   0  0  0  0  0
   -0.7270    2.7644   -4.8717 H   0  0  0  0  0
    0.9102    2.2728   -4.7380 H   0  0  0  0  0
    1.0597    0.9652    0.5559 H   0  0  0  0  0
    1.6814   -0.4155    1.3605 H   0  0  0  0  0
    0.4886   -0.5978    0.1423 H   0  0  0  0  0
   -0.8944    1.7180    5.9586 H   0  0  0  0  0
   -1.0461    0.0454    6.3038 H   0  0  0  0  0
    0.4585    0.6797    5.7806 H   0  0  0  0  0
    0.4322   -1.0488   -5.1391 H   0  0  0  0  0
    1.6271   -2.7338   -4.8262 H   0  0  0  0  0
    2.1270   -2.0786   -3.3226 H   0  0  0  0  0
   -0.4294   -2.1847   -2.4265 H   0  0  0  0  0
   -0.9293   -2.8399   -3.9301 H   0  0  0  0  0
  1 19  2  0  0  0
  2  4  2  0  0  0
  2  5  1  0  0  0
  3 19  1  0  0  0
  3 20  1  0  0  0
  3 21  1  0  0  0
  4  6  1  0  0  0
  4 11  1  0  0  0
  5  7  1  0  0  0
  5 12  2  0  0  0
  6  8  2  0  0  0
  6 13  1  0  0  0
  7  9  2  0  0  0
  7 14  1  0  0  0
  8 12  1  0  0  0
  8 19  1  0  0  0
  9 15  1  0  0  0
  9 22  1  0  0  0
 10 15  2  0  0  0
 10 16  1  0  0  0
 10 23  1  0  0  0
 11 17  2  0  0  0
 11 27  1  0  0  0
 12 28  1  0  0  0
 13 18  2  0  0  0
 13 29  1  0  0  0
 14 16  2  0  0  0
 14 30  1  0  0  0
 15 31  1  0  0  0
 16 32  1  0  0  0
 17 18  1  0  0  0
 17 33  1  0  0  0
 18 34  1  0  0  0
 20 24  1  0  0  0
 20 35  1  0  0  0
 20 36  1  0  0  0
 21 37  1  0  0  0
 21 38  1  0  0  0
 21 39  1  0  0  0
 22 40  1  0  0  0
 22 41  1  0  0  0
 22 42  1  0  0  0
 23 43  1  0  0  0
 23 44  1  0  0  0
 23 45  1  0  0  0
 24 25  1  0  0  0
 24 26  1  0  0  0
 24 46  1  0  0  0
 25 26  1  0  0  0
 25 47  1  0  0  0
 25 48  1  0  0  0
 26 49  1  0  0  0
 26 50  1  0  0  0
M  END
> <QPhAR in domain>
True

> <s_m_source_file>
iis-003-500-000--003-999-999_filtered_optim.maegz

> <PRICERANGE_50MG>
100 - 250

> <r_epik_Charging_Adjusted_Penalty>
0.0

> <PRICERANGE_1MG>
50 - 100

> <Name>
MolPort-009-073-825

> <i_m_Source_File_Index>
24729

> <i_lp_mmshare_version>
36015

> <PUBCHEM_EXT_DATASOURCE_URL>
https://www.molport.com

> <s_lp_Force_Field>
OPLS3

> <r_epik_Ionization_Penalty>
3.05959E-5

> <r_epik_State_Penalty>
0.0

> <IS_SC>
Yes

> <r_epik_Ionization_Penalty_Neutral>
3.05959E-5

> <s_m_Source_Path>
/home/mrgulotta/data_server/CADD/LIBRERIE/OTTIMIZZATE/MOLPORT/ALL_STOCK_COMPOUNDS_FILTERED_NEW

> <i_m_source_file_index>
24729

> <PUBCHEM_EXT_SUBSTANCE_URL>
https://www.molport.com/shop/molecule-link/MolPort-009-073-825

> <VERIFIED_AMOUNT_MG>
200

> <r_epik_Ionization_Penalty_Charging>
0.0

> <r_lp_Energy>
60.2409

> <QC_METHOD>
LCMS + NMR

> <QPhAR prediction>
6.787359199323558

> <i_epik_Tot_abs_Q>
0

> <i_epik_Tot_Q>
0

> <cdk:Title>
null

> <b_lp_Chiralities_Consistent>
1

> <s_m_entry_name>
iis-003-500-000--003-999-999_filtered.24729

> <i_f3d_flags>
0

> <PRICERANGE_5MG>
50 - 100

> <COMPOUND_STATE>
SOLID

> <s_m_entry_id>
24729

> <Molecule_Name>
MolPort-009-073-825

> <Score>
0.9352626275302139

> <BEST_LEAD_TIME>
10

> <s_lp_Variant>
MolPort-009-073-825-1

> <s_m_Source_File>
iis-003-500-000--003-999-999_filtered.sdf

> <r_lp_tautomer_probability>
1.0

> <UNVERIFIED_AMOUNT_MG>
200.0

$$$$
MolPort-005-872-043
XX    ILIB07022204093D

 49 52  0  0  1  0              1 V2000
   -3.8701   -1.1655   -3.9600 S   0  0  0  0  0
   -0.7756   -1.1816    0.0421 O   0  0  0  0  0
   -4.6445   -0.5425   -1.5029 N   0  0  0  0  0
   -3.0361   -0.5996    0.2982 N   0  0  0  0  0
   -3.6270   -0.9275   -2.2939 C   0  0  0  0  0
   -2.2334   -1.6143   -4.2109 C   0  0  0  0  0
   -2.0156   -0.9895   -0.5212 C   0  0  0  0  0
   -0.6685   -0.9629    1.3960 C   0  0  0  0  0
   -4.2598   -0.4045   -0.2277 C   0  0  0  0  0
   -2.3203   -1.1665   -1.8945 C   0  0  0  0  0
   -1.5254   -1.5601   -3.0244 C   0  0  0  0  0
   -0.1319   -1.8784   -2.9385 C   0  0  0  0  0
   -0.2529    0.3976    3.3027 C   0  0  0  0  0
   -0.8049   -1.9302    3.6270 C   0  0  0  0  0
    2.5410   -2.5264   -2.7998 C   0  0  0  0  0
   -0.3379    0.3037    1.9009 C   0  0  0  0  0
   -0.9026   -2.0586    2.2393 C   0  0  0  0  0
    0.3154   -3.0752   -3.5146 C   0  0  0  0  0
    0.7195   -0.9670   -2.2852 C   0  0  0  0  0
   -0.4856   -0.6833    4.1641 C   0  0  0  0  0
    1.6665   -3.4092   -3.4375 C   0  0  0  0  0
    2.0732   -1.3320   -2.2324 C   0  0  0  0  0
    0.0936    1.7139    3.8994 C   0  0  0  0  0
   -1.0522   -3.0957    4.5137 C   0  0  0  0  0
    3.9912   -2.8398   -2.7129 C   0  0  0  0  0
   -0.9575    2.7656    3.5488 C   0  0  0  0  0
    1.4858    2.1660    3.4600 C   0  0  0  0  0
   -1.9031   -1.8794   -5.1717 H   0  0  0  0  0
   -4.9552   -0.1090    0.5014 H   0  0  0  0  0
   -0.1722    1.1045    1.2423 H   0  0  0  0  0
   -1.1553   -2.9918    1.8297 H   0  0  0  0  0
   -0.3653   -3.7113   -3.9989 H   0  0  0  0  0
    0.3277   -0.0824   -1.8772 H   0  0  0  0  0
   -0.4189   -0.5501    5.2035 H   0  0  0  0  0
    2.0308   -4.3046   -3.8474 H   0  0  0  0  0
    2.7427   -0.6820   -1.7510 H   0  0  0  0  0
    0.0795    1.6381    4.9466 H   0  0  0  0  0
   -2.0812   -3.1766    4.7066 H   0  0  0  0  0
   -0.5359   -2.9630    5.4183 H   0  0  0  0  0
   -0.7144   -3.9714    4.0431 H   0  0  0  0  0
    4.2806   -3.3941   -3.5564 H   0  0  0  0  0
    4.5409   -1.9459   -2.6760 H   0  0  0  0  0
    4.1767   -3.4008   -1.8449 H   0  0  0  0  0
   -1.9097    2.4101    3.8121 H   0  0  0  0  0
   -0.7563    3.6509    4.0762 H   0  0  0  0  0
   -0.9289    2.9586    2.5171 H   0  0  0  0  0
    2.1915    1.8782    4.1823 H   0  0  0  0  0
    1.7246    1.7197    2.5401 H   0  0  0  0  0
    1.4979    3.2107    3.3558 H   0  0  0  0  0
  1  5  1  0  0  0
  1  6  1  0  0  0
  2  7  1  0  0  0
  2  8  1  0  0  0
  3  5  2  0  0  0
  3  9  1  0  0  0
  4  7  1  0  0  0
  4  9  2  0  0  0
  5 10  1  0  0  0
  6 11  2  0  0  0
  6 28  1  0  0  0
  7 10  2  0  0  0
  8 16  1  0  0  0
  8 17  2  0  0  0
  9 29  1  0  0  0
 10 11  1  0  0  0
 11 12  1  0  0  0
 12 18  2  0  0  0
 12 19  1  0  0  0
 13 16  2  0  0  0
 13 20  1  0  0  0
 13 23  1  0  0  0
 14 17  1  0  0  0
 14 20  2  0  0  0
 14 24  1  0  0  0
 15 21  2  0  0  0
 15 22  1  0  0  0
 15 25  1  0  0  0
 16 30  1  0  0  0
 17 31  1  0  0  0
 18 21  1  0  0  0
 18 32  1  0  0  0
 19 22  2  0  0  0
 19 33  1  0  0  0
 20 34  1  0  0  0
 21 35  1  0  0  0
 22 36  1  0  0  0
 23 26  1  0  0  0
 23 27  1  0  0  0
 23 37  1  0  0  0
 24 38  1  0  0  0
 24 39  1  0  0  0
 24 40  1  0  0  0
 25 41  1  0  0  0
 25 42  1  0  0  0
 25 43  1  0  0  0
 26 44  1  0  0  0
 26 45  1  0  0  0
 26 46  1  0  0  0
 27 47  1  0  0  0
 27 48  1  0  0  0
 27 49  1  0  0  0
M  END
> <QPhAR in domain>
True

> <s_m_source_file>
iis-002-500-000--002-999-999_filtered_optim.maegz

> <PRICERANGE_50MG>
100 - 250

> <r_epik_Charging_Adjusted_Penalty>
0.0

> <PRICERANGE_1MG>
50 - 100

> <Name>
MolPort-005-872-043

> <i_m_Source_File_Index>
22323

> <i_lp_mmshare_version>
36015

> <PUBCHEM_EXT_DATASOURCE_URL>
https://www.molport.com

> <s_lp_Force_Field>
OPLS3

> <r_epik_Ionization_Penalty>
2.78965E-5

> <r_epik_State_Penalty>
0.0

> <IS_SC>
Yes

> <r_epik_Ionization_Penalty_Neutral>
2.78965E-5

> <s_m_Source_Path>
/home/mrgulotta/data_server/CADD/LIBRERIE/OTTIMIZZATE/MOLPORT/ALL_STOCK_COMPOUNDS_FILTERED_NEW

> <i_m_source_file_index>
22323

> <PUBCHEM_EXT_SUBSTANCE_URL>
https://www.molport.com/shop/molecule-link/MolPort-005-872-043

> <VERIFIED_AMOUNT_MG>
300

> <r_epik_Ionization_Penalty_Charging>
0.0

> <r_lp_Energy>
38.799

> <QC_METHOD>
NMR

> <QPhAR prediction>
6.787359199323558

> <i_epik_Tot_abs_Q>
0

> <i_epik_Tot_Q>
0

> <cdk:Title>
null

> <b_lp_Chiralities_Consistent>
1

> <s_m_entry_name>
iis-002-500-000--002-999-999_filtered.22323

> <i_f3d_flags>
0

> <PRICERANGE_5MG>
50 - 100

> <COMPOUND_STATE>
SOLID

> <s_m_entry_id>
135116

> <Molecule_Name>
MolPort-005-872-043

> <Score>
0.9208840121555033

> <BEST_LEAD_TIME>
10

> <s_lp_Variant>
MolPort-005-872-043-1

> <s_m_Source_File>
iis-002-500-000--002-999-999_filtered.sdf

> <r_lp_tautomer_probability>
1.0

> <UNVERIFIED_AMOUNT_MG>
300.0

$$$$
MolPort-008-373-429
XX    ILIB07022204093D

 55 57  0  0  1  0              1 V2000
   -0.4028   -3.9326   -2.2158 O   0  0  0  0  0
   -0.6150    0.5071    3.9385 N   0  0  0  0  0
   -0.4491   -0.7732    4.2988 N   0  0  0  0  0
   -2.7939   -0.5032    0.4551 N   0  0  0  0  0
    0.5286   -1.9946   -3.0527 N   0  0  0  0  0
   -3.2480   -0.7922   -0.7793 C   0  0  0  0  0
   -1.5659   -0.9417    0.8113 C   0  0  0  0  0
   -1.0361    0.6626    2.6543 C   0  0  0  0  0
   -0.8096   -1.4722    3.2119 C   0  0  0  0  0
   -2.4805   -1.5283   -1.7051 C   0  0  0  0  0
   -1.1650   -0.6052    2.1436 C   0  0  0  0  0
   -1.1968   -1.9424   -1.2974 C   0  0  0  0  0
   -3.0137   -1.8076   -2.9795 C   0  0  0  0  0
   -5.0410   -0.6228   -2.4287 C   0  0  0  0  0
   -4.5156   -0.3533   -1.1602 C   0  0  0  0  0
   -0.7332   -1.6646   -0.0155 C   0  0  0  0  0
   -4.2812   -1.3594   -3.3340 C   0  0  0  0  0
   -0.3479   -2.7002   -2.2061 C   0  0  0  0  0
   -0.3236    1.5356    4.9102 C   0  0  0  0  0
    1.3818   -2.7217   -3.9492 C   0  0  0  0  0
    0.6038   -0.5645   -3.1562 C   0  0  0  0  0
   -2.2324   -2.5820   -3.9785 C   0  0  0  0  0
   -6.3945   -0.1371   -2.7979 C   0  0  0  0  0
    1.1284    1.9751    4.8594 C   0  0  0  0  0
    2.8418   -2.3818   -3.6621 C   0  0  0  0  0
    1.0215   -2.3428   -5.3848 C   0  0  0  0  0
    1.6035    0.0216   -2.1709 C   0  0  0  0  0
   -1.1902    1.6256    2.2653 H   0  0  0  0  0
   -0.8009   -2.5219    3.2360 H   0  0  0  0  0
   -5.1051    0.1963   -0.4872 H   0  0  0  0  0
    0.2061   -1.9804    0.3315 H   0  0  0  0  0
   -4.6675   -1.5761   -4.2860 H   0  0  0  0  0
   -0.9258    2.3750    4.7226 H   0  0  0  0  0
   -0.5212    1.1716    5.8751 H   0  0  0  0  0
    1.2418   -3.7525   -3.8068 H   0  0  0  0  0
    0.9035   -0.2991   -4.1269 H   0  0  0  0  0
   -0.3393   -0.1490   -2.9552 H   0  0  0  0  0
   -2.8902   -3.1023   -4.6102 H   0  0  0  0  0
   -1.6453   -1.9248   -4.5494 H   0  0  0  0  0
   -1.6096   -3.2661   -3.4818 H   0  0  0  0  0
   -6.4842    0.8773   -2.5422 H   0  0  0  0  0
   -6.5374   -0.2513   -3.8318 H   0  0  0  0  0
   -7.1192   -0.6938   -2.2808 H   0  0  0  0  0
    1.5793    1.5938    3.9912 H   0  0  0  0  0
    1.6339    1.6116    5.7049 H   0  0  0  0  0
    1.1764    3.0239    4.8469 H   0  0  0  0  0
    3.1348   -2.8311   -2.7594 H   0  0  0  0  0
    3.4448   -2.7403   -4.4434 H   0  0  0  0  0
    2.9502   -1.3402   -3.5860 H   0  0  0  0  0
    0.5691   -3.1625   -5.8601 H   0  0  0  0  0
    0.3548   -1.5316   -5.3759 H   0  0  0  0  0
    1.8930   -2.0739   -5.9050 H   0  0  0  0  0
    1.3729    1.0311   -1.9971 H   0  0  0  0  0
    1.5555   -0.5092   -1.2662 H   0  0  0  0  0
    2.5722   -0.0526   -2.5693 H   0  0  0  0  0
  1 18  2  0  0  0
  2  3  1  0  0  0
  2  8  1  0  0  0
  2 19  1  0  0  0
  3  9  2  0  0  0
  4  6  2  0  0  0
  4  7  1  0  0  0
  5 18  1  0  0  0
  5 20  1  0  0  0
  5 21  1  0  0  0
  6 10  1  0  0  0
  6 15  1  0  0  0
  7 11  1  0  0  0
  7 16  2  0  0  0
  8 11  2  0  0  0
  8 28  1  0  0  0
  9 11  1  0  0  0
  9 29  1  0  0  0
 10 12  2  0  0  0
 10 13  1  0  0  0
 12 16  1  0  0  0
 12 18  1  0  0  0
 13 17  2  0  0  0
 13 22  1  0  0  0
 14 15  2  0  0  0
 14 17  1  0  0  0
 14 23  1  0  0  0
 15 30  1  0  0  0
 16 31  1  0  0  0
 17 32  1  0  0  0
 19 24  1  0  0  0
 19 33  1  0  0  0
 19 34  1  0  0  0
 20 25  1  0  0  0
 20 26  1  0  0  0
 20 35  1  0  0  0
 21 27  1  0  0  0
 21 36  1  0  0  0
 21 37  1  0  0  0
 22 38  1  0  0  0
 22 39  1  0  0  0
 22 40  1  0  0  0
 23 41  1  0  0  0
 23 42  1  0  0  0
 23 43  1  0  0  0
 24 44  1  0  0  0
 24 45  1  0  0  0
 24 46  1  0  0  0
 25 47  1  0  0  0
 25 48  1  0  0  0
 25 49  1  0  0  0
 26 50  1  0  0  0
 26 51  1  0  0  0
 26 52  1  0  0  0
 27 53  1  0  0  0
 27 54  1  0  0  0
 27 55  1  0  0  0
M  END
> <QPhAR in domain>
True

> <s_m_source_file>
iis-003-500-000--003-999-999_filtered_optim.maegz

> <r_epik_Charging_Adjusted_Penalty>
0.0

> <PRICERANGE_1MG>
< 50

> <Name>
MolPort-008-373-429

> <i_m_Source_File_Index>
7155

> <i_lp_mmshare_version>
36015

> <PUBCHEM_EXT_DATASOURCE_URL>
https://www.molport.com

> <s_lp_Force_Field>
OPLS3

> <r_epik_Ionization_Penalty>
3.97324E-5

> <r_epik_State_Penalty>
0.0

> <IS_SC>
Yes

> <r_epik_Ionization_Penalty_Neutral>
3.97324E-5

> <s_m_Source_Path>
/home/mrgulotta/data_server/CADD/LIBRERIE/OTTIMIZZATE/MOLPORT/ALL_STOCK_COMPOUNDS_FILTERED_NEW

> <i_m_source_file_index>
7155

> <PUBCHEM_EXT_SUBSTANCE_URL>
https://www.molport.com/shop/molecule-link/MolPort-008-373-429

> <VERIFIED_AMOUNT_MG>
1

> <r_epik_Ionization_Penalty_Charging>
0.0

> <r_lp_Energy>
45.9608

> <QC_METHOD>
LCMS

> <QPhAR prediction>
6.787359199323558

> <i_epik_Tot_abs_Q>
0

> <i_epik_Tot_Q>
0

> <cdk:Title>
null

> <b_lp_Chiralities_Consistent>
1

> <s_m_entry_name>
iis-003-500-000--003-999-999_filtered.7155

> <i_f3d_flags>
0

> <COMPOUND_STATE>
FILM

> <s_m_entry_id>
7155

> <Score>
0.9429118049196541

> <Molecule_Name>
MolPort-008-373-429

> <BEST_LEAD_TIME>
12

> <s_lp_Variant>
MolPort-008-373-429-1

> <s_m_Source_File>
iis-003-500-000--003-999-999_filtered.sdf

> <r_lp_tautomer_probability>
1.0

> <UNVERIFIED_AMOUNT_MG>
1.0

$$$$
MolPort-002-806-251
XX    ILIB07022204093D

 44 48  0  0  1  0              1 V2000
   -0.1437    2.3057    3.7256 Cl  0  0  0  0  0
    0.8677   -0.0757    5.5039 Cl  0  0  0  0  0
   -1.4541    1.6831   -1.4800 S   0  0  0  0  0
   -3.0967   -1.1157   -4.8516 N   0  0  0  0  0
   -4.2891   -0.5852   -4.6133 N   0  0  0  0  0
   -2.6025   -1.4150   -3.6436 N   0  0  0  0  0
   -2.4229   -1.1875    0.7825 N   0  0  0  0  0
   -4.5547   -0.5469   -3.2656 N   0  0  0  0  0
   -3.4834   -1.9966    0.9224 N   0  0  0  0  0
   -0.5435    0.6821    3.3213 C   0  0  0  0  0
   -0.0939   -0.3787    4.1094 C   0  0  0  0  0
   -1.1748    0.1216   -0.8276 C   0  0  0  0  0
    0.2206    2.0312   -1.5806 C   0  0  0  0  0
   -3.5000   -1.0674   -2.6729 C   0  0  0  0  0
   -2.2500   -0.7271   -0.4849 C   0  0  0  0  0
   -4.0332   -2.0312   -0.3013 C   0  0  0  0  0
   -1.3477   -1.9966   -3.5322 C   0  0  0  0  0
   -1.6401   -0.9316    1.8999 C   0  0  0  0  0
   -3.2744   -1.2637   -1.2241 C   0  0  0  0  0
    1.1606   -3.1152   -3.3350 C   0  0  0  0  0
   -1.3345    0.4008    2.2080 C   0  0  0  0  0
   -0.4139   -1.7051    3.7861 C   0  0  0  0  0
    0.1760   -0.1252   -0.7126 C   0  0  0  0  0
    0.9817    0.9514   -1.1763 C   0  0  0  0  0
   -1.2012   -2.0254    2.6689 C   0  0  0  0  0
   -0.2766   -1.4053   -4.2148 C   0  0  0  0  0
   -1.2158   -3.1465   -2.7305 C   0  0  0  0  0
    0.9922   -1.9761   -4.1250 C   0  0  0  0  0
    0.0757   -3.6895   -2.6562 C   0  0  0  0  0
    2.5010   -3.7422   -3.2002 C   0  0  0  0  0
    0.5419    2.9723   -1.9177 H   0  0  0  0  0
   -4.9127   -2.5805   -0.4664 H   0  0  0  0  0
   -1.6955    1.1840    1.6090 H   0  0  0  0  0
   -0.0623   -2.4913    4.3867 H   0  0  0  0  0
    0.5110   -1.0370   -0.3141 H   0  0  0  0  0
    2.0291    0.9961   -1.2348 H   0  0  0  0  0
   -1.4671   -3.0026    2.3915 H   0  0  0  0  0
   -0.4331   -0.5396   -4.7879 H   0  0  0  0  0
   -2.0541   -3.5412   -2.2366 H   0  0  0  0  0
    1.8123   -1.5662   -4.6368 H   0  0  0  0  0
    0.2181   -4.5502   -2.0719 H   0  0  0  0  0
    3.2329   -2.9924   -3.1318 H   0  0  0  0  0
    2.5247   -4.3346   -2.3336 H   0  0  0  0  0
    2.6926   -4.3427   -4.0400 H   0  0  0  0  0
  1 10  1  0  0  0
  2 11  1  0  0  0
  3 12  1  0  0  0
  3 13  1  0  0  0
  4  5  2  0  0  0
  4  6  1  0  0  0
  5  8  1  0  0  0
  6 14  1  0  0  0
  6 17  1  0  0  0
  7  9  1  0  0  0
  7 15  1  0  0  0
  7 18  1  0  0  0
  8 14  2  0  0  0
  9 16  2  0  0  0
 10 11  2  0  0  0
 10 21  1  0  0  0
 11 22  1  0  0  0
 12 15  1  0  0  0
 12 23  2  0  0  0
 13 24  2  0  0  0
 13 31  1  0  0  0
 14 19  1  0  0  0
 15 19  2  0  0  0
 16 19  1  0  0  0
 16 32  1  0  0  0
 17 26  2  0  0  0
 17 27  1  0  0  0
 18 21  2  0  0  0
 18 25  1  0  0  0
 20 28  2  0  0  0
 20 29  1  0  0  0
 20 30  1  0  0  0
 21 33  1  0  0  0
 22 25  2  0  0  0
 22 34  1  0  0  0
 23 24  1  0  0  0
 23 35  1  0  0  0
 24 36  1  0  0  0
 25 37  1  0  0  0
 26 28  1  0  0  0
 26 38  1  0  0  0
 27 29  2  0  0  0
 27 39  1  0  0  0
 28 40  1  0  0  0
 29 41  1  0  0  0
 30 42  1  0  0  0
 30 43  1  0  0  0
 30 44  1  0  0  0
M  END
> <QPhAR in domain>
True

> <s_m_source_file>
iis-001-000-000--001-499-999_minus_1_wrong_filtered_optim.maegz

> <PRICERANGE_50MG>
50 - 100

> <r_epik_Charging_Adjusted_Penalty>
0.0

> <PRICERANGE_1MG>
< 50

> <Name>
MolPort-002-806-251

> <i_m_Source_File_Index>
29361

> <i_lp_mmshare_version>
36015

> <PUBCHEM_EXT_DATASOURCE_URL>
https://www.molport.com

> <s_lp_Force_Field>
OPLS3

> <r_epik_Ionization_Penalty>
2.09691E-8

> <r_epik_State_Penalty>
0.0

> <IS_SC>
Yes

> <r_epik_Ionization_Penalty_Neutral>
2.09691E-8

> <s_m_Source_Path>
/home/mrgulotta/data_server/CADD/LIBRERIE/OTTIMIZZATE/MOLPORT/ALL_STOCK_COMPOUNDS_FILTERED_NEW

> <i_m_source_file_index>
29361

> <PUBCHEM_EXT_SUBSTANCE_URL>
https://www.molport.com/shop/molecule-link/MolPort-002-806-251

> <VERIFIED_AMOUNT_MG>
300

> <r_epik_Ionization_Penalty_Charging>
0.0

> <r_lp_Energy>
35.2009

> <QPhAR prediction>
6.787359199323558

> <i_epik_Tot_abs_Q>
0

> <i_epik_Tot_Q>
0

> <cdk:Title>
null

> <b_lp_Chiralities_Consistent>
1

> <s_m_entry_name>
iis-001-000-000--001-499-999_minus_1_wrong_filtered.29361

> <i_f3d_flags>
0

> <PRICERANGE_5MG>
< 50

> <COMPOUND_STATE>
N/A

> <s_m_entry_id>
115110

> <Molecule_Name>
MolPort-002-806-251

> <Score>
0.9254499469122015

> <BEST_LEAD_TIME>
10

> <s_lp_Variant>
MolPort-002-806-251-1

> <s_m_Source_File>
iis-001-000-000--001-499-999_minus_1_wrong_filtered.sdf

> <r_lp_tautomer_probability>
1.0

> <UNVERIFIED_AMOUNT_MG>
300.0

$$$$
MolPort-028-893-186
XX    ILIB07022204093D

 57 60  0  0  1  0              1 V2000
   -1.9668   -2.9893    2.4863 O   0  0  0  0  0
   -5.2715   -0.5249    3.9746 O   0  0  0  0  0
   -7.6992    3.7227    3.9062 O   0  0  0  0  0
   -1.1572   -0.0785   -0.8899 N   0  0  0  0  0
   -6.3496    1.3501    3.2070 N   0  0  0  0  0
   -1.8857   -1.8501    3.2539 C   0  0  0  0  0
   -2.0674   -0.8440   -1.6006 C   0  0  0  0  0
   -1.6157    0.1168    0.3954 C   0  0  0  0  0
   -3.0967   -1.1841   -0.7185 C   0  0  0  0  0
   -2.6406   -0.6973    2.9658 C   0  0  0  0  0
   -2.0781   -1.2690   -2.9385 C   0  0  0  0  0
   -2.7705   -0.6282    0.5574 C   0  0  0  0  0
   -1.0410   -1.7588    4.3691 C   0  0  0  0  0
   -4.1836   -1.9478   -1.2007 C   0  0  0  0  0
   -2.5811    0.4753    3.7305 C   0  0  0  0  0
   -3.1602   -2.0322   -3.3877 C   0  0  0  0  0
   -0.9634   -0.5940    5.1465 C   0  0  0  0  0
   -4.2168   -2.3633   -2.5391 C   0  0  0  0  0
   -1.7251    0.5330    4.8301 C   0  0  0  0  0
   -5.4238    0.3455    3.1211 C   0  0  0  0  0
   -6.6895    3.7627    2.8965 C   0  0  0  0  0
   -7.3711    2.7725    4.9219 C   0  0  0  0  0
   -2.9814   -3.8691    2.9736 C   0  0  0  0  0
   -6.5625    2.4072    2.2109 C   0  0  0  0  0
   -7.2891    1.3750    4.3262 C   0  0  0  0  0
   -3.5557   -0.7310    1.7949 C   0  0  2  0  0
   -0.9778   -0.9255   -3.8760 C   0  0  0  0  0
   -4.5840    0.4025    1.8599 C   0  0  0  0  0
    0.0890   -1.9722   -3.8438 C   0  0  0  0  0
   -0.3099    0.2424   -1.3362 H   0  0  0  0  0
   -1.0908    0.7483    1.0498 H   0  0  0  0  0
   -0.4430   -2.5772    4.6432 H   0  0  0  0  0
   -4.9707   -2.2063   -0.5557 H   0  0  0  0  0
   -3.1777    1.3003    3.4738 H   0  0  0  0  0
   -3.1887   -2.3684   -4.3820 H   0  0  0  0  0
   -0.3258   -0.5607    5.9801 H   0  0  0  0  0
   -5.0328   -2.9194   -2.8961 H   0  0  0  0  0
   -1.6629    1.4118    5.4014 H   0  0  0  0  0
   -5.7674    4.0107    3.3332 H   0  0  0  0  0
   -6.9419    4.4852    2.1776 H   0  0  0  0  0
   -6.4433    3.0203    5.3465 H   0  0  0  0  0
   -8.1115    2.7862    5.6663 H   0  0  0  0  0
   -2.9271   -3.9199    4.0210 H   0  0  0  0  0
   -2.8378   -4.8272    2.5688 H   0  0  0  0  0
   -3.9250   -3.5068    2.6892 H   0  0  0  0  0
   -5.7481    2.4332    1.5486 H   0  0  0  0  0
   -7.4436    2.2105    1.6747 H   0  0  0  0  0
   -8.2423    1.0913    3.9894 H   0  0  0  0  0
   -6.9668    0.7061    5.0686 H   0  0  0  0  0
   -4.0918   -1.6338    1.7955 H   0  0  0  0  0
   -0.5576   -0.0038   -3.5998 H   0  0  0  0  0
   -1.3581   -0.8582   -4.8524 H   0  0  0  0  0
   -5.2086    0.3236    1.0196 H   0  0  0  0  0
   -4.0651    1.3147    1.8258 H   0  0  0  0  0
    1.0318   -1.5105   -3.8230 H   0  0  0  0  0
   -0.0290   -2.5659   -2.9859 H   0  0  0  0  0
    0.0135   -2.5754   -4.7000 H   0  0  0  0  0
  1  6  1  0  0  0
  1 23  1  0  0  0
  2 20  2  0  0  0
  3 21  1  0  0  0
  3 22  1  0  0  0
  4  7  1  0  0  0
  4  8  1  0  0  0
  4 30  1  0  0  0
  5 20  1  0  0  0
  5 24  1  0  0  0
  5 25  1  0  0  0
  6 10  2  0  0  0
  6 13  1  0  0  0
  7  9  2  0  0  0
  7 11  1  0  0  0
  8 12  2  0  0  0
  8 31  1  0  0  0
  9 12  1  0  0  0
  9 14  1  0  0  0
 10 15  1  0  0  0
 10 26  1  0  0  0
 11 16  2  0  0  0
 11 27  1  0  0  0
 12 26  1  0  0  0
 13 17  2  0  0  0
 13 32  1  0  0  0
 14 18  2  0  0  0
 14 33  1  0  0  0
 15 19  2  0  0  0
 15 34  1  0  0  0
 16 18  1  0  0  0
 16 35  1  0  0  0
 17 19  1  0  0  0
 17 36  1  0  0  0
 18 37  1  0  0  0
 19 38  1  0  0  0
 20 28  1  0  0  0
 21 24  1  0  0  0
 21 39  1  0  0  0
 21 40  1  0  0  0
 22 25  1  0  0  0
 22 41  1  0  0  0
 22 42  1  0  0  0
 23 43  1  0  0  0
 23 44  1  0  0  0
 23 45  1  0  0  0
 24 46  1  0  0  0
 24 47  1  0  0  0
 25 48  1  0  0  0
 25 49  1  0  0  0
 26 28  1  0  0  0
 26 50  1  0  0  0
 27 29  1  0  0  0
 27 51  1  0  0  0
 27 52  1  0  0  0
 28 53  1  0  0  0
 28 54  1  0  0  0
 29 55  1  0  0  0
 29 56  1  0  0  0
 29 57  1  0  0  0
M  END
> <QPhAR in domain>
True

> <s_m_source_file>
iis-005-500-000--005-999-999_filtered_optim.maegz

> <r_epik_Charging_Adjusted_Penalty>
0.0

> <PRICERANGE_1MG>
50 - 100

> <Name>
MolPort-028-893-186

> <i_m_Source_File_Index>
56571

> <i_lp_mmshare_version>
36015

> <PUBCHEM_EXT_DATASOURCE_URL>
https://www.molport.com

> <s_lp_Force_Field>
OPLS3

> <r_epik_Ionization_Penalty>
4.92879E-10

> <r_epik_State_Penalty>
0.0

> <IS_SC>
Yes

> <r_epik_Ionization_Penalty_Neutral>
4.92879E-10

> <s_m_Source_Path>
/home/mrgulotta/data_server/CADD/LIBRERIE/OTTIMIZZATE/MOLPORT/ALL_STOCK_COMPOUNDS_FILTERED_NEW

> <i_m_source_file_index>
56571

> <PUBCHEM_EXT_SUBSTANCE_URL>
https://www.molport.com/shop/molecule-link/MolPort-028-893-186

> <VERIFIED_AMOUNT_MG>
20

> <r_epik_Ionization_Penalty_Charging>
0.0

> <r_lp_Energy>
41.9771

> <QC_METHOD>
LCMS

> <QPhAR prediction>
6.787110733868305

> <i_epik_Tot_abs_Q>
0

> <i_epik_Tot_Q>
0

> <cdk:Title>
null

> <b_lp_Chiralities_Consistent>
1

> <s_m_entry_name>
iis-005-500-000--005-999-999_filtered.56571

> <i_f3d_flags>
0

> <PRICERANGE_5MG>
50 - 100

> <COMPOUND_STATE>
SOLID

> <s_m_entry_id>
201995

> <Molecule_Name>
MolPort-028-893-186

> <Score>
0.9332444167782322

> <BEST_LEAD_TIME>
10

> <s_lp_Variant>
MolPort-028-893-186-1

> <s_m_Source_File>
iis-005-500-000--005-999-999_filtered.sdf

> <r_lp_tautomer_probability>
1.0

> <UNVERIFIED_AMOUNT_MG>
20

$$$$
MolPort-016-602-126
XX    ILIB07022204093D

 52 55  0  0  1  0              1 V2000
    3.8936    0.5200   -0.0963 O   0  0  0  0  0
    3.5586    1.5312    3.4072 O   0  0  0  0  0
   -2.3252   -0.8010   -0.9504 N   0  0  0  0  0
   -3.0186   -1.7280   -2.8662 N   0  0  0  0  0
   -3.5762   -0.0374    4.7715 N   0  0  0  0  0
    2.6279    0.1677   -0.5039 C   0  0  0  0  0
   -3.3887   -1.2690   -1.6909 C   0  0  0  0  0
   -1.2075   -0.9888   -1.7310 C   0  0  0  0  0
   -1.6631   -1.5557   -2.8975 C   0  0  0  0  0
   -3.4971   -0.5454    3.5186 C   0  0  0  0  0
   -2.4297    0.3724    5.3574 C   0  0  0  0  0
    0.1119   -0.6067   -1.3135 C   0  0  0  0  0
   -0.8884   -1.9385   -4.0391 C   0  0  0  0  0
   -2.2744   -0.6711    2.8564 C   0  0  0  0  0
    1.6226    1.1328   -0.5940 C   0  0  0  0  0
    2.3701   -1.1729   -0.8254 C   0  0  0  0  0
   -1.1836    0.2965    4.7637 C   0  0  0  0  0
    0.3472    0.7373   -0.9946 C   0  0  0  0  0
    1.1016   -1.6055   -1.2388 C   0  0  0  0  0
   -0.9031   -3.2822   -4.4336 C   0  0  0  0  0
   -0.1570   -0.9407   -4.7129 C   0  0  0  0  0
   -1.0977   -0.2358    3.4795 C   0  0  0  0  0
   -0.1508   -3.6807   -5.5391 C   0  0  0  0  0
    0.5823   -1.3750   -5.8223 C   0  0  0  0  0
    0.5837   -2.7158   -6.2324 C   0  0  0  0  0
    4.0254    0.4158    1.3110 C   0  0  0  0  0
    3.4258    1.6357    1.9946 C   0  0  0  0  0
   -2.3750   -0.2309    0.3762 C   0  0  0  0  0
   -2.2227   -1.2646    1.4956 C   0  0  0  0  0
    2.8915    0.8322    3.7640 H   0  0  0  0  0
   -4.3607   -1.2315   -1.2955 H   0  0  0  0  0
   -4.3686   -0.8559    3.0220 H   0  0  0  0  0
   -2.4510    0.7794    6.3251 H   0  0  0  0  0
    1.8344    2.1347   -0.3620 H   0  0  0  0  0
    3.1384   -1.8856   -0.7598 H   0  0  0  0  0
   -0.3345    0.6352    5.2802 H   0  0  0  0  0
   -0.4399    1.4313   -1.0317 H   0  0  0  0  0
    0.8651   -2.5984   -1.4851 H   0  0  0  0  0
   -1.4770   -3.9801   -3.8988 H   0  0  0  0  0
   -0.1896    0.0528   -4.3747 H   0  0  0  0  0
   -0.1783   -0.3147    2.9786 H   0  0  0  0  0
   -0.1447   -4.6883   -5.8344 H   0  0  0  0  0
    1.1563   -0.6888   -6.3720 H   0  0  0  0  0
    1.1480   -2.9902   -7.0743 H   0  0  0  0  0
    5.0425    0.3492    1.5633 H   0  0  0  0  0
    3.5244   -0.4437    1.6468 H   0  0  0  0  0
    2.4086    1.7022    1.7426 H   0  0  0  0  0
    3.9265    2.4953    1.6586 H   0  0  0  0  0
   -1.5981    0.4667    0.4867 H   0  0  0  0  0
   -3.2985    0.2486    0.5167 H   0  0  0  0  0
   -1.2992   -1.7450    1.3581 H   0  0  0  0  0
   -2.9997   -1.9627    1.3885 H   0  0  0  0  0
  1  6  1  0  0  0
  1 26  1  0  0  0
  2 27  1  0  0  0
  2 30  1  0  0  0
  3  7  1  0  0  0
  3  8  1  0  0  0
  3 28  1  0  0  0
  4  7  2  0  0  0
  4  9  1  0  0  0
  5 10  2  0  0  0
  5 11  1  0  0  0
  6 15  2  0  0  0
  6 16  1  0  0  0
  7 31  1  0  0  0
  8  9  2  0  0  0
  8 12  1  0  0  0
  9 13  1  0  0  0
 10 14  1  0  0  0
 10 32  1  0  0  0
 11 17  2  0  0  0
 11 33  1  0  0  0
 12 18  2  0  0  0
 12 19  1  0  0  0
 13 20  2  0  0  0
 13 21  1  0  0  0
 14 22  2  0  0  0
 14 29  1  0  0  0
 15 18  1  0  0  0
 15 34  1  0  0  0
 16 19  2  0  0  0
 16 35  1  0  0  0
 17 22  1  0  0  0
 17 36  1  0  0  0
 18 37  1  0  0  0
 19 38  1  0  0  0
 20 23  1  0  0  0
 20 39  1  0  0  0
 21 24  2  0  0  0
 21 40  1  0  0  0
 22 41  1  0  0  0
 23 25  2  0  0  0
 23 42  1  0  0  0
 24 25  1  0  0  0
 24 43  1  0  0  0
 25 44  1  0  0  0
 26 27  1  0  0  0
 26 45  1  0  0  0
 26 46  1  0  0  0
 27 47  1  0  0  0
 27 48  1  0  0  0
 28 29  1  0  0  0
 28 49  1  0  0  0
 28 50  1  0  0  0
 29 51  1  0  0  0
 29 52  1  0  0  0
M  END
> <QPhAR in domain>
True

> <s_m_source_file>
iis-004-500-000--004-999-999_filtered_optim.maegz

> <r_epik_Charging_Adjusted_Penalty>
0.160544

> <PRICERANGE_1MG>
< 50

> <Name>
MolPort-016-602-126

> <i_m_Source_File_Index>
24759

> <i_lp_mmshare_version>
36015

> <PUBCHEM_EXT_DATASOURCE_URL>
https://www.molport.com

> <s_lp_Force_Field>
OPLS3

> <r_epik_Ionization_Penalty>
0.0873294

> <r_epik_State_Penalty>
0.0755698

> <IS_SC>
Yes

> <r_epik_Ionization_Penalty_Neutral>
0.00235556

> <s_m_Source_Path>
/home/mrgulotta/data_server/CADD/LIBRERIE/OTTIMIZZATE/MOLPORT/ALL_STOCK_COMPOUNDS_FILTERED_NEW

> <i_m_source_file_index>
24759

> <PUBCHEM_EXT_SUBSTANCE_URL>
https://www.molport.com/shop/molecule-link/MolPort-016-602-126

> <VERIFIED_AMOUNT_MG>
5

> <r_epik_Ionization_Penalty_Charging>
0.0849738

> <r_lp_Energy>
34.129

> <QC_METHOD>
LCMS

> <QPhAR prediction>
6.787110733868305

> <i_epik_Tot_abs_Q>
0

> <i_epik_Tot_Q>
0

> <cdk:Title>
null

> <b_lp_Chiralities_Consistent>
1

> <s_m_entry_name>
iis-004-500-000--004-999-999_filtered.24759

> <i_f3d_flags>
0

> <PRICERANGE_5MG>
50 - 100

> <COMPOUND_STATE>
FILM

> <s_m_entry_id>
160345

> <Molecule_Name>
MolPort-016-602-126

> <Score>
0.9083733785037733

> <BEST_LEAD_TIME>
12

> <s_lp_Variant>
MolPort-016-602-126-1

> <s_m_Source_File>
iis-004-500-000--004-999-999_filtered.sdf

> <r_lp_tautomer_probability>
1.0

> <UNVERIFIED_AMOUNT_MG>
5.0

$$$$
MolPort-004-061-390
XX    ILIB07022204093D

 57 62  0  0  1  0              1 V2000
   -4.3477   -0.8069   -3.2715 S   0  0  0  0  0
    0.1778   -1.7749    6.5410 O   0  0  0  0  0
   -0.7942   -1.2017    0.3071 O   0  0  0  0  0
    0.8030    0.3652    6.3848 N   0  0  0  0  0
    0.9351   -0.0204    7.7031 N   0  0  0  0  0
   -4.7812   -0.2878   -0.7090 N   0  0  0  0  0
   -2.9707   -0.5256    0.8726 N   0  0  0  0  0
   -5.1367    1.6406    1.8301 N   0  0  0  0  0
   -3.8906   -0.6760   -1.6392 C   0  0  0  0  0
   -2.7822   -1.3193   -3.7480 C   0  0  0  0  0
    0.3578   -0.6868    5.7266 C   0  0  0  0  0
    0.5574   -1.2798    7.7578 C   0  0  0  0  0
   -2.0811   -0.9175   -0.0867 C   0  0  0  0  0
   -0.5107   -1.0659    1.6465 C   0  0  0  0  0
   -4.2363   -0.2417    0.5137 C   0  0  0  0  0
   -2.5605   -1.0010   -1.4185 C   0  0  0  0  0
   -1.9321   -1.3677   -2.6572 C   0  0  0  0  0
    0.0494   -0.8384    4.3320 C   0  0  0  0  0
   -0.5583   -1.7578   -2.7617 C   0  0  0  0  0
   -0.6902   -2.1768    2.4814 C   0  0  0  0  0
   -0.0473    0.1821    2.1055 C   0  0  0  0  0
   -0.4165   -2.0605    3.8438 C   0  0  0  0  0
    0.2250    0.2604    3.4795 C   0  0  0  0  0
   -0.0758   -2.7402   -1.8872 C   0  0  0  0  0
    0.2360   -1.1382   -3.7461 C   0  0  0  0  0
    1.2603   -3.1309   -1.9653 C   0  0  0  0  0
    1.5728   -1.5605   -3.8008 C   0  0  0  0  0
    2.0762   -2.5400   -2.9326 C   0  0  0  0  0
   -5.1426    0.1767    1.6152 C   0  0  0  0  0
   -5.5801    2.4131    0.6060 C   0  0  0  0  0
   -5.9531    2.0098    3.0508 C   0  0  0  0  0
   -5.4512    3.9062    0.8711 C   0  0  0  0  0
   -5.8223    3.5010    3.3223 C   0  0  0  0  0
   -6.2285    4.3301    2.1113 C   0  0  0  0  0
   -2.5873   -1.5445   -4.7549 H   0  0  0  0  0
    0.5265   -1.8953    8.6079 H   0  0  0  0  0
   -1.0279   -3.0863    2.0798 H   0  0  0  0  0
    0.0733    0.9778    1.4310 H   0  0  0  0  0
   -0.5544   -2.8694    4.4989 H   0  0  0  0  0
    0.5693    1.1743    3.8651 H   0  0  0  0  0
   -0.7189   -3.1757   -1.1806 H   0  0  0  0  0
   -0.1830   -0.4120   -4.3783 H   0  0  0  0  0
    1.6347   -3.8560   -1.3046 H   0  0  0  0  0
    2.2275   -1.1408   -4.5063 H   0  0  0  0  0
    3.0824   -2.8277   -3.0176 H   0  0  0  0  0
   -4.8289   -0.3071    2.4927 H   0  0  0  0  0
   -6.1143   -0.1372    1.3706 H   0  0  0  0  0
   -4.9760    2.1502   -0.2116 H   0  0  0  0  0
   -6.5813    2.1820    0.3900 H   0  0  0  0  0
   -6.9621    1.7737    2.8815 H   0  0  0  0  0
   -5.6026    1.4724    3.8819 H   0  0  0  0  0
   -5.8254    4.4413    0.0488 H   0  0  0  0  0
   -4.4403    4.1499    1.0165 H   0  0  0  0  0
   -6.4418    3.7658    4.1276 H   0  0  0  0  0
   -4.8247    3.7275    3.5590 H   0  0  0  0  0
   -7.2563    4.1972    1.9426 H   0  0  0  0  0
   -6.0355    5.3416    2.3166 H   0  0  0  0  0
  1  9  1  0  0  0
  1 10  1  0  0  0
  2 11  1  0  0  0
  2 12  1  0  0  0
  3 13  1  0  0  0
  3 14  1  0  0  0
  4  5  1  0  0  0
  4 11  2  0  0  0
  5 12  2  0  0  0
  6  9  2  0  0  0
  6 15  1  0  0  0
  7 13  1  0  0  0
  7 15  2  0  0  0
  8 29  1  0  0  0
  8 30  1  0  0  0
  8 31  1  0  0  0
  9 16  1  0  0  0
 10 17  2  0  0  0
 10 35  1  0  0  0
 11 18  1  0  0  0
 12 36  1  0  0  0
 13 16  2  0  0  0
 14 20  2  0  0  0
 14 21  1  0  0  0
 15 29  1  0  0  0
 16 17  1  0  0  0
 17 19  1  0  0  0
 18 22  2  0  0  0
 18 23  1  0  0  0
 19 24  2  0  0  0
 19 25  1  0  0  0
 20 22  1  0  0  0
 20 37  1  0  0  0
 21 23  2  0  0  0
 21 38  1  0  0  0
 22 39  1  0  0  0
 23 40  1  0  0  0
 24 26  1  0  0  0
 24 41  1  0  0  0
 25 27  2  0  0  0
 25 42  1  0  0  0
 26 28  2  0  0  0
 26 43  1  0  0  0
 27 28  1  0  0  0
 27 44  1  0  0  0
 28 45  1  0  0  0
 29 46  1  0  0  0
 29 47  1  0  0  0
 30 32  1  0  0  0
 30 48  1  0  0  0
 30 49  1  0  0  0
 31 33  1  0  0  0
 31 50  1  0  0  0
 31 51  1  0  0  0
 32 34  1  0  0  0
 32 52  1  0  0  0
 32 53  1  0  0  0
 33 34  1  0  0  0
 33 54  1  0  0  0
 33 55  1  0  0  0
 34 56  1  0  0  0
 34 57  1  0  0  0
M  END
> <QPhAR in domain>
True

> <s_m_source_file>
iis-001-500-000--001-999-999_filtered_optim.maegz

> <PRICERANGE_50MG>
100 - 250

> <r_epik_Charging_Adjusted_Penalty>
0.489719

> <PRICERANGE_1MG>
50 - 100

> <Name>
MolPort-004-061-390

> <i_m_Source_File_Index>
34559

> <i_lp_mmshare_version>
36015

> <PUBCHEM_EXT_DATASOURCE_URL>
https://www.molport.com

> <s_lp_Force_Field>
OPLS3

> <r_epik_Ionization_Penalty>
0.249222

> <r_epik_State_Penalty>
0.240499

> <IS_SC>
Yes

> <r_epik_Ionization_Penalty_Neutral>
1.41581E-6

> <s_m_Source_Path>
/home/mrgulotta/data_server/CADD/LIBRERIE/OTTIMIZZATE/MOLPORT/ALL_STOCK_COMPOUNDS_FILTERED_NEW

> <i_m_source_file_index>
34559

> <PUBCHEM_EXT_SUBSTANCE_URL>
https://www.molport.com/shop/molecule-link/MolPort-004-061-390

> <VERIFIED_AMOUNT_MG>
500

> <r_epik_Ionization_Penalty_Charging>
0.24922

> <r_lp_Energy>
51.3199

> <QC_METHOD>
NMR

> <QPhAR prediction>
6.785927995574609

> <i_epik_Tot_abs_Q>
1

> <i_epik_Tot_Q>
1

> <cdk:Title>
null

> <b_lp_Chiralities_Consistent>
1

> <s_m_entry_name>
iis-001-500-000--001-999-999_filtered.34559

> <i_f3d_flags>
0

> <PRICERANGE_5MG>
50 - 100

> <COMPOUND_STATE>
SOLID

> <s_m_entry_id>
34559

> <Molecule_Name>
MolPort-004-061-390

> <Score>
0.9255770905084736

> <BEST_LEAD_TIME>
10

> <s_lp_Variant>
MolPort-004-061-390-1

> <s_m_Source_File>
iis-001-500-000--001-999-999_filtered.sdf

> <r_lp_tautomer_probability>
1.0

> <UNVERIFIED_AMOUNT_MG>
500.0

$$$$
MolPort-002-918-766
XX    ILIB07022204093D

 44 47  0  0  1  0              1 V2000
   -4.4883    1.0786   -2.3359 O   0  0  0  0  0
   -2.2852   -3.7461   -3.5312 O   0  0  0  0  0
   -3.3594    0.0144   -0.6282 N   0  0  0  0  0
   -2.9629    0.1027   -5.4258 N   0  0  0  0  0
   -3.4736    0.2296   -1.9575 C   0  0  0  0  0
   -1.1177   -3.1230   -3.9082 C   0  0  0  0  0
   -2.3779   -0.8113   -0.1962 C   0  0  0  0  0
   -0.7432   -1.8633   -3.4033 C   0  0  0  0  0
   -2.2959   -1.0288    1.2598 C   0  0  0  0  0
   -1.6167   -1.2231   -2.4600 C   0  0  0  0  0
   -2.6396   -0.3606   -2.9043 C   0  0  0  0  0
   -1.4746   -1.4370   -1.0698 C   0  0  0  0  0
   -1.1338   -1.6113    1.8086 C   0  0  0  0  0
   -0.2256   -3.6982   -4.8242 C   0  0  0  0  0
    0.4402   -1.2070   -3.7676 C   0  0  0  0  0
   -3.3389   -0.6802    2.1357 C   0  0  0  0  0
   -1.0225   -1.8115    3.1914 C   0  0  0  0  0
    0.9626   -3.0576   -5.2051 C   0  0  0  0  0
    1.3003   -1.8052   -4.6855 C   0  0  0  0  0
   -3.2275   -0.8965    3.5107 C   0  0  0  0  0
   -2.0693   -1.4600    4.0391 C   0  0  0  0  0
   -5.2090    1.5615   -1.2007 C   0  0  0  0  0
   -3.3652   -3.3857   -4.3945 C   0  0  0  0  0
   -2.8154   -0.1053   -4.2949 C   0  0  0  0  0
   -0.4473   -2.3838   -0.4872 C   0  0  0  0  0
    0.0234   -1.9453    0.9021 C   0  0  0  0  0
   -0.4386   -4.6356   -5.2466 H   0  0  0  0  0
    0.6722   -0.2722   -3.3494 H   0  0  0  0  0
   -4.2193   -0.2498    1.7587 H   0  0  0  0  0
   -0.1464   -2.2285    3.5927 H   0  0  0  0  0
    1.6118   -3.5191   -5.8892 H   0  0  0  0  0
    2.1829   -1.3153   -4.9744 H   0  0  0  0  0
   -4.0186   -0.6340    4.1492 H   0  0  0  0  0
   -1.9838   -1.6201    5.0733 H   0  0  0  0  0
   -6.0471    2.1053   -1.5236 H   0  0  0  0  0
   -5.5235    0.7492   -0.6143 H   0  0  0  0  0
   -4.5860    2.1848   -0.6299 H   0  0  0  0  0
   -4.2038   -3.1284   -3.8173 H   0  0  0  0  0
   -3.0820   -2.5653   -4.9855 H   0  0  0  0  0
   -3.6035   -4.1985   -5.0150 H   0  0  0  0  0
   -0.8646   -3.3435   -0.4016 H   0  0  0  0  0
    0.3912   -2.4217   -1.1180 H   0  0  0  0  0
    0.5823   -2.7287    1.3222 H   0  0  0  0  0
    0.6356   -1.0996    0.7899 H   0  0  0  0  0
  1  5  1  0  0  0
  1 22  1  0  0  0
  2  6  1  0  0  0
  2 23  1  0  0  0
  3  5  2  0  0  0
  3  7  1  0  0  0
  4 24  3  0  0  0
  5 11  1  0  0  0
  6  8  2  0  0  0
  6 14  1  0  0  0
  7  9  1  0  0  0
  7 12  2  0  0  0
  8 10  1  0  0  0
  8 15  1  0  0  0
  9 13  2  0  0  0
  9 16  1  0  0  0
 10 11  2  0  0  0
 10 12  1  0  0  0
 11 24  1  0  0  0
 12 25  1  0  0  0
 13 17  1  0  0  0
 13 26  1  0  0  0
 14 18  2  0  0  0
 14 27  1  0  0  0
 15 19  2  0  0  0
 15 28  1  0  0  0
 16 20  2  0  0  0
 16 29  1  0  0  0
 17 21  2  0  0  0
 17 30  1  0  0  0
 18 19  1  0  0  0
 18 31  1  0  0  0
 19 32  1  0  0  0
 20 21  1  0  0  0
 20 33  1  0  0  0
 21 34  1  0  0  0
 22 35  1  0  0  0
 22 36  1  0  0  0
 22 37  1  0  0  0
 23 38  1  0  0  0
 23 39  1  0  0  0
 23 40  1  0  0  0
 25 26  1  0  0  0
 25 41  1  0  0  0
 25 42  1  0  0  0
 26 43  1  0  0  0
 26 44  1  0  0  0
M  END
> <QPhAR in domain>
True

> <s_m_source_file>
iis-001-000-000--001-499-999_minus_1_wrong_filtered_optim.maegz

> <PRICERANGE_50MG>
100 - 250

> <r_epik_Charging_Adjusted_Penalty>
0.0

> <PRICERANGE_1MG>
50 - 100

> <Name>
MolPort-002-918-766

> <i_m_Source_File_Index>
40025

> <i_lp_mmshare_version>
36015

> <PUBCHEM_EXT_DATASOURCE_URL>
https://www.molport.com

> <s_lp_Force_Field>
OPLS3

> <r_epik_Ionization_Penalty>
1.23052E-8

> <r_epik_State_Penalty>
0.0

> <IS_SC>
Yes

> <r_epik_Ionization_Penalty_Neutral>
1.23052E-8

> <s_m_Source_Path>
/home/mrgulotta/data_server/CADD/LIBRERIE/OTTIMIZZATE/MOLPORT/ALL_STOCK_COMPOUNDS_FILTERED_NEW

> <i_m_source_file_index>
40025

> <PUBCHEM_EXT_SUBSTANCE_URL>
https://www.molport.com/shop/molecule-link/MolPort-002-918-766

> <VERIFIED_AMOUNT_MG>
1500

> <r_epik_Ionization_Penalty_Charging>
0.0

> <r_lp_Energy>
50.1857

> <QPhAR prediction>
6.779179090598494

> <i_epik_Tot_abs_Q>
0

> <i_epik_Tot_Q>
0

> <cdk:Title>
null

> <b_lp_Chiralities_Consistent>
1

> <s_m_entry_name>
iis-001-000-000--001-499-999_minus_1_wrong_filtered.40025

> <i_f3d_flags>
0

> <PRICERANGE_5MG>
50 - 100

> <COMPOUND_STATE>
N/A

> <s_m_entry_id>
125774

> <Molecule_Name>
MolPort-002-918-766

> <Score>
0.9227354497555545

> <BEST_LEAD_TIME>
7

> <s_lp_Variant>
MolPort-002-918-766-1

> <s_m_Source_File>
iis-001-000-000--001-499-999_minus_1_wrong_filtered.sdf

> <r_lp_tautomer_probability>
1.0

> <UNVERIFIED_AMOUNT_MG>
1500.0

$$$$
MolPort-010-975-253
XX    ILIB07022204093D

 49 51  0  0  1  0              1 V2000
   -0.1923    1.4180   -3.2441 O   0  0  0  0  0
    2.5566    0.4235   -1.1582 O   0  0  0  0  0
    1.2988   -0.5320   -2.8408 O   0  0  0  0  0
   -2.3818   -0.7939    0.2499 N   0  0  0  0  0
   -3.5254   -1.4751    0.4276 N   0  0  0  0  0
   -1.1602    0.3676   -1.4722 N   0  0  0  0  0
   -1.2534    0.6772   -2.7773 C   0  0  0  0  0
   -2.2129   -0.3387   -1.0278 C   0  0  0  0  0
   -4.0918   -1.4458   -0.7808 C   0  0  0  0  0
   -1.5317   -0.6309    1.3340 C   0  0  0  0  0
   -3.3271   -0.7544   -1.7529 C   0  0  0  0  0
   -3.4189   -0.4142   -3.1279 C   0  0  0  0  0
    0.1545   -0.2618    3.4805 C   0  0  0  0  0
   -2.3066    0.3201   -3.6201 C   0  0  0  0  0
   -1.0620    0.6570    1.6250 C   0  0  0  0  0
   -1.1914   -1.7690    2.0898 C   0  0  0  0  0
   -0.2006    0.8445    2.7051 C   0  0  0  0  0
   -0.3291   -1.5420    3.1738 C   0  0  0  0  0
    1.6582    0.4698   -1.9868 C   0  0  0  0  0
    0.7546    1.6606   -2.2178 C   0  0  0  0  0
    2.0537   -1.7275   -2.7373 C   0  0  0  0  0
    1.0562   -0.0989    4.6504 C   0  0  0  0  0
   -5.3945   -2.1104   -0.9287 C   0  0  0  0  0
   -4.5645   -0.8018   -3.9912 C   0  0  0  0  0
    1.5117   -2.7129   -3.7578 C   0  0  0  0  0
    2.4844   -0.2625    4.2422 C   0  0  0  0  0
   -2.2842    0.5942   -4.6335 H   0  0  0  0  0
   -1.3592    1.4707    1.0317 H   0  0  0  0  0
   -1.5787   -2.7089    1.8269 H   0  0  0  0  0
    0.1799    1.7944    2.9404 H   0  0  0  0  0
   -0.0473   -2.3646    3.7624 H   0  0  0  0  0
    0.2518    1.8694   -1.3200 H   0  0  0  0  0
    1.3546    2.4808   -2.4819 H   0  0  0  0  0
    1.9578   -2.1192   -1.7678 H   0  0  0  0  0
    3.0645   -1.5212   -2.9330 H   0  0  0  0  0
    0.9278    0.8591    5.0605 H   0  0  0  0  0
    0.8247   -0.8234    5.3743 H   0  0  0  0  0
   -5.4511   -2.9214   -0.2642 H   0  0  0  0  0
   -6.1623   -1.4273   -0.7135 H   0  0  0  0  0
   -5.5006   -2.4572   -1.9141 H   0  0  0  0  0
   -5.1744    0.0360   -4.1604 H   0  0  0  0  0
   -4.2046   -1.1637   -4.9088 H   0  0  0  0  0
   -5.1240   -1.5516   -3.5145 H   0  0  0  0  0
    1.6959   -2.3509   -4.7260 H   0  0  0  0  0
    1.9870   -3.6411   -3.6348 H   0  0  0  0  0
    0.4774   -2.8281   -3.6181 H   0  0  0  0  0
    2.5329   -0.8207    3.3542 H   0  0  0  0  0
    3.0098   -0.7644    5.0002 H   0  0  0  0  0
    2.9141    0.6826    4.0854 H   0  0  0  0  0
  1  7  1  0  0  0
  1 20  1  0  0  0
  2 19  2  0  0  0
  3 19  1  0  0  0
  3 21  1  0  0  0
  4  5  1  0  0  0
  4  8  1  0  0  0
  4 10  1  0  0  0
  5  9  2  0  0  0
  6  7  1  0  0  0
  6  8  2  0  0  0
  7 14  2  0  0  0
  8 11  1  0  0  0
  9 11  1  0  0  0
  9 23  1  0  0  0
 10 15  2  0  0  0
 10 16  1  0  0  0
 11 12  2  0  0  0
 12 14  1  0  0  0
 12 24  1  0  0  0
 13 17  2  0  0  0
 13 18  1  0  0  0
 13 22  1  0  0  0
 14 27  1  0  0  0
 15 17  1  0  0  0
 15 28  1  0  0  0
 16 18  2  0  0  0
 16 29  1  0  0  0
 17 30  1  0  0  0
 18 31  1  0  0  0
 19 20  1  0  0  0
 20 32  1  0  0  0
 20 33  1  0  0  0
 21 25  1  0  0  0
 21 34  1  0  0  0
 21 35  1  0  0  0
 22 26  1  0  0  0
 22 36  1  0  0  0
 22 37  1  0  0  0
 23 38  1  0  0  0
 23 39  1  0  0  0
 23 40  1  0  0  0
 24 41  1  0  0  0
 24 42  1  0  0  0
 24 43  1  0  0  0
 25 44  1  0  0  0
 25 45  1  0  0  0
 25 46  1  0  0  0
 26 47  1  0  0  0
 26 48  1  0  0  0
 26 49  1  0  0  0
M  END
> <QPhAR in domain>
True

> <s_m_source_file>
iis-004-500-000--004-999-999_filtered_optim.maegz

> <r_epik_Charging_Adjusted_Penalty>
0.0

> <PRICERANGE_1MG>
50 - 100

> <s_epik_Chemistry_Notes>
This compound has an ester and may undergo hydrolysis at high or low pH.

> <Name>
MolPort-010-975-253

> <i_m_Source_File_Index>
6321

> <i_lp_mmshare_version>
36015

> <PUBCHEM_EXT_DATASOURCE_URL>
https://www.molport.com

> <s_lp_Force_Field>
OPLS3

> <r_epik_Ionization_Penalty>
7.8645E-5

> <r_epik_State_Penalty>
0.0

> <IS_SC>
Yes

> <r_epik_Ionization_Penalty_Neutral>
7.8645E-5

> <s_m_Source_Path>
/home/mrgulotta/data_server/CADD/LIBRERIE/OTTIMIZZATE/MOLPORT/ALL_STOCK_COMPOUNDS_FILTERED_NEW

> <i_m_source_file_index>
6321

> <PUBCHEM_EXT_SUBSTANCE_URL>
https://www.molport.com/shop/molecule-link/MolPort-010-975-253

> <VERIFIED_AMOUNT_MG>
2

> <r_epik_Ionization_Penalty_Charging>
0.0

> <r_lp_Energy>
29.2468

> <QC_METHOD>
NMR

> <QPhAR prediction>
6.779179090598494

> <i_epik_Tot_abs_Q>
0

> <i_epik_Tot_Q>
0

> <cdk:Title>
null

> <b_lp_Chiralities_Consistent>
1

> <s_m_entry_name>
iis-004-500-000--004-999-999_filtered.6321

> <i_f3d_flags>
0

> <COMPOUND_STATE>
SOLID

> <s_m_entry_id>
141907

> <Molecule_Name>
MolPort-010-975-253

> <Score>
0.9240563053112592

> <BEST_LEAD_TIME>
10

> <s_lp_Variant>
MolPort-010-975-253-1

> <s_m_Source_File>
iis-004-500-000--004-999-999_filtered.sdf

> <r_lp_tautomer_probability>
1.0

> <UNVERIFIED_AMOUNT_MG>
2.0

$$$$
MolPort-002-717-429
XX    ILIB07022204093D

 51 55  0  0  1  0              1 V2000
   -4.1133   -0.8645   -2.0371 S   0  0  0  0  0
   -4.9355   -1.2598   -4.9258 O   0  0  0  0  0
   -2.7920   -1.8667   -5.5508 O   0  0  0  0  0
   -0.8708   -1.9136   -3.9443 N   0  0  0  0  0
   -2.9229   -0.6489    0.3207 N   0  0  0  0  0
   -2.7803   -0.9355   -0.9885 C   0  0  0  0  0
   -3.1738   -1.3267   -3.3984 C   0  0  0  0  0
   -1.7925   -0.7417    1.0566 C   0  0  0  0  0
   -0.5330   -3.2285   -4.2539 C   0  0  0  0  0
   -0.0507   -1.0469   -4.6543 C   0  0  0  0  0
   -1.8525   -1.5298   -3.0303 C   0  0  0  0  0
   -1.6108   -1.3052   -1.6343 C   0  0  0  0  0
   -1.9404   -0.4412    2.4531 C   0  0  0  0  0
   -0.4563   -1.3872   -0.8293 C   0  0  0  0  0
    0.8118   -1.7627   -1.3887 C   0  0  0  0  0
   -0.5562   -1.1001    0.5308 C   0  0  0  0  0
    0.4706   -3.1729   -5.2070 C   0  0  0  0  0
    0.7783   -1.8184   -5.4453 C   0  0  0  0  0
   -3.2100   -0.0855    2.9277 C   0  0  0  0  0
   -0.8010   -0.5266    3.2764 C   0  0  0  0  0
    1.9258   -0.9585   -1.1133 C   0  0  0  0  0
    0.8721   -2.9258   -2.1797 C   0  0  0  0  0
   -3.3760    0.2179    4.2773 C   0  0  0  0  0
   -1.0063   -0.2219    4.6309 C   0  0  0  0  0
    3.1660   -1.2988   -1.6514 C   0  0  0  0  0
    2.1367   -3.2412   -2.6982 C   0  0  0  0  0
   -2.2686    0.1388    5.1250 C   0  0  0  0  0
    3.2637   -2.4492   -2.4375 C   0  0  0  0  0
   -3.7578   -1.4590   -4.6895 C   0  0  0  0  0
   -3.2236   -2.0830   -6.8848 C   0  0  0  0  0
   -3.0693   -0.7778   -7.6445 C   0  0  0  0  0
   -1.0272   -4.0234   -3.7781 H   0  0  0  0  0
   -0.1443   -0.0094   -4.5227 H   0  0  0  0  0
    0.2855   -1.1514    1.1565 H   0  0  0  0  0
    0.8591   -4.0600   -5.6126 H   0  0  0  0  0
    1.4794   -1.3577   -6.0767 H   0  0  0  0  0
   -4.0260   -0.0494    2.2679 H   0  0  0  0  0
    0.1244   -0.8039    2.8650 H   0  0  0  0  0
    1.8222   -0.1080   -0.5063 H   0  0  0  0  0
    0.0042   -3.4927   -2.3467 H   0  0  0  0  0
   -4.3203    0.4996    4.6398 H   0  0  0  0  0
   -0.2025   -0.2606    5.3054 H   0  0  0  0  0
    4.0038   -0.6946   -1.4628 H   0  0  0  0  0
    2.2596   -4.0921   -3.3011 H   0  0  0  0  0
   -2.3743    0.3508    6.1479 H   0  0  0  0  0
    4.1905   -2.7313   -2.8423 H   0  0  0  0  0
   -2.6344   -2.8316   -7.3263 H   0  0  0  0  0
   -4.2293   -2.3849   -6.8827 H   0  0  0  0  0
   -2.2541   -0.2414   -7.2568 H   0  0  0  0  0
   -2.9024   -0.9820   -8.6608 H   0  0  0  0  0
   -3.9446   -0.2072   -7.5413 H   0  0  0  0  0
  1  6  1  0  0  0
  1  7  1  0  0  0
  2 29  2  0  0  0
  3 29  1  0  0  0
  3 30  1  0  0  0
  4  9  1  0  0  0
  4 10  1  0  0  0
  4 11  1  0  0  0
  5  6  2  0  0  0
  5  8  1  0  0  0
  6 12  1  0  0  0
  7 11  2  0  0  0
  7 29  1  0  0  0
  8 13  1  0  0  0
  8 16  2  0  0  0
  9 17  2  0  0  0
  9 32  1  0  0  0
 10 18  2  0  0  0
 10 33  1  0  0  0
 11 12  1  0  0  0
 12 14  2  0  0  0
 13 19  2  0  0  0
 13 20  1  0  0  0
 14 15  1  0  0  0
 14 16  1  0  0  0
 15 21  2  0  0  0
 15 22  1  0  0  0
 16 34  1  0  0  0
 17 18  1  0  0  0
 17 35  1  0  0  0
 18 36  1  0  0  0
 19 23  1  0  0  0
 19 37  1  0  0  0
 20 24  2  0  0  0
 20 38  1  0  0  0
 21 25  1  0  0  0
 21 39  1  0  0  0
 22 26  2  0  0  0
 22 40  1  0  0  0
 23 27  2  0  0  0
 23 41  1  0  0  0
 24 27  1  0  0  0
 24 42  1  0  0  0
 25 28  2  0  0  0
 25 43  1  0  0  0
 26 28  1  0  0  0
 26 44  1  0  0  0
 27 45  1  0  0  0
 28 46  1  0  0  0
 30 31  1  0  0  0
 30 47  1  0  0  0
 30 48  1  0  0  0
 31 49  1  0  0  0
 31 50  1  0  0  0
 31 51  1  0  0  0
M  END
> <QPhAR in domain>
True

> <s_m_source_file>
iis-001-000-000--001-499-999_minus_1_wrong_filtered_optim.maegz

> <PRICERANGE_50MG>
100 - 250

> <r_epik_Charging_Adjusted_Penalty>
0.0

> <PRICERANGE_1MG>
< 50

> <s_epik_Chemistry_Notes>
This compound has an ester and may undergo hydrolysis at high or low pH.

> <Name>
MolPort-002-717-429

> <i_m_Source_File_Index>
20447

> <i_lp_mmshare_version>
36015

> <PUBCHEM_EXT_DATASOURCE_URL>
https://www.molport.com

> <s_lp_Force_Field>
OPLS3

> <r_epik_Ionization_Penalty>
1.68549E-8

> <r_epik_State_Penalty>
0.0

> <IS_SC>
Yes

> <r_epik_Ionization_Penalty_Neutral>
1.68549E-8

> <s_m_Source_Path>
/home/mrgulotta/data_server/CADD/LIBRERIE/OTTIMIZZATE/MOLPORT/ALL_STOCK_COMPOUNDS_FILTERED_NEW

> <i_m_source_file_index>
20447

> <PUBCHEM_EXT_SUBSTANCE_URL>
https://www.molport.com/shop/molecule-link/MolPort-002-717-429

> <VERIFIED_AMOUNT_MG>
50

> <r_epik_Ionization_Penalty_Charging>
0.0

> <r_lp_Energy>
45.1201

> <QC_METHOD>
LCMS; NMR

> <QPhAR prediction>
6.779179090598494

> <i_epik_Tot_abs_Q>
0

> <i_epik_Tot_Q>
0

> <cdk:Title>
null

> <b_lp_Chiralities_Consistent>
1

> <s_m_entry_name>
iis-001-000-000--001-499-999_minus_1_wrong_filtered.20447

> <i_f3d_flags>
0

> <PRICERANGE_5MG>
< 50

> <COMPOUND_STATE>
SOLID; N/A

> <s_m_entry_id>
106196

> <Molecule_Name>
MolPort-002-717-429

> <Score>
0.9355586661270543

> <BEST_LEAD_TIME>
10

> <s_lp_Variant>
MolPort-002-717-429-1

> <s_m_Source_File>
iis-001-000-000--001-499-999_minus_1_wrong_filtered.sdf

> <r_lp_tautomer_probability>
1.0

> <UNVERIFIED_AMOUNT_MG>
50.0

$$$$
MolPort-028-825-677
XX    ILIB07022204093D

 50 53  0  0  1  0              1 V2000
   -0.4773    0.1415    4.6953 S   0  0  0  0  0
    2.2275   -2.2559   -6.3203 O   0  0  0  0  0
    1.2627   -3.7324    1.8823 O   0  0  0  0  0
   -2.2842    0.4435   -0.5024 N   0  0  0  0  0
   -0.7710   -3.5918    0.7717 N   0  0  0  0  0
   -0.0088   -1.4834    4.4219 C   0  0  0  0  0
   -1.8560   -0.0126    3.6895 C   0  0  0  0  0
    1.7051   -2.2520   -5.0488 C   0  0  0  0  0
   -3.1250   -0.4138   -1.1943 C   0  0  0  0  0
   -1.0518   -0.1490   -0.3317 C   0  0  0  0  0
   -2.3789   -1.5518   -1.5137 C   0  0  0  0  0
   -0.8975   -2.1221    3.5928 C   0  0  0  0  0
   -1.0522   -1.3481   -1.0225 C   0  0  0  0  0
    0.6335   -2.2803   -2.5107 C   0  0  0  0  0
   -1.9824   -1.2910    3.1982 C   0  0  0  0  0
    0.6899   -3.1680   -4.7422 C   0  0  0  0  0
    2.2246   -1.3315   -4.1172 C   0  0  0  0  0
   -4.4727   -0.2915   -1.5688 C   0  0  0  0  0
   -3.0117   -2.6104   -2.2031 C   0  0  0  0  0
    0.1393   -3.1777   -3.4609 C   0  0  0  0  0
    1.6523   -1.3740   -2.8379 C   0  0  0  0  0
   -5.0723   -1.3496   -2.2588 C   0  0  0  0  0
   -4.3613   -2.5098   -2.5674 C   0  0  0  0  0
    0.0375   -3.6289    1.8970 C   0  0  0  0  0
    1.5083   -1.3691   -7.1777 C   0  0  0  0  0
   -0.2455   -3.6738   -0.5618 C   0  0  0  0  0
    0.0840   -2.2725   -1.1309 C   0  0  2  0  0
   -0.7461   -3.5264    3.1904 C   0  0  0  0  0
   -2.6183    1.3502   -0.2084 H   0  0  0  0  0
   -1.7722   -3.5040    0.8719 H   0  0  0  0  0
    0.8620   -1.8613    4.8707 H   0  0  0  0  0
   -2.4774    0.8166    3.5198 H   0  0  0  0  0
   -0.3164    0.3265    0.2476 H   0  0  0  0  0
   -2.8121   -1.5469    2.6077 H   0  0  0  0  0
    0.3499   -3.8394   -5.4744 H   0  0  0  0  0
    2.9910   -0.6725   -4.4017 H   0  0  0  0  0
   -5.0069    0.5803   -1.3299 H   0  0  0  0  0
   -2.4706   -3.4772   -2.4447 H   0  0  0  0  0
   -0.6287   -3.8456   -3.2027 H   0  0  0  0  0
    2.0082   -0.7008   -2.1150 H   0  0  0  0  0
   -6.0771   -1.2805   -2.5555 H   0  0  0  0  0
   -4.8303   -3.3042   -3.0689 H   0  0  0  0  0
    2.0294   -0.4612   -7.2586 H   0  0  0  0  0
    0.5547   -1.1907   -6.7761 H   0  0  0  0  0
    1.4119   -1.8033   -8.1288 H   0  0  0  0  0
    0.6355   -4.2450   -0.5563 H   0  0  0  0  0
   -0.9536   -4.1286   -1.1897 H   0  0  0  0  0
    0.8420   -1.9746   -0.4682 H   0  0  0  0  0
   -0.2339   -4.0523    3.9411 H   0  0  0  0  0
   -1.6945   -3.9540    3.0484 H   0  0  0  0  0
  1  6  1  0  0  0
  1  7  1  0  0  0
  2  8  1  0  0  0
  2 25  1  0  0  0
  3 24  2  0  0  0
  4  9  1  0  0  0
  4 10  1  0  0  0
  4 29  1  0  0  0
  5 24  1  0  0  0
  5 26  1  0  0  0
  5 30  1  0  0  0
  6 12  2  0  0  0
  6 31  1  0  0  0
  7 15  2  0  0  0
  7 32  1  0  0  0
  8 16  2  0  0  0
  8 17  1  0  0  0
  9 11  2  0  0  0
  9 18  1  0  0  0
 10 13  2  0  0  0
 10 33  1  0  0  0
 11 13  1  0  0  0
 11 19  1  0  0  0
 12 15  1  0  0  0
 12 28  1  0  0  0
 13 27  1  0  0  0
 14 20  2  0  0  0
 14 21  1  0  0  0
 14 27  1  0  0  0
 15 34  1  0  0  0
 16 20  1  0  0  0
 16 35  1  0  0  0
 17 21  2  0  0  0
 17 36  1  0  0  0
 18 22  2  0  0  0
 18 37  1  0  0  0
 19 23  2  0  0  0
 19 38  1  0  0  0
 20 39  1  0  0  0
 21 40  1  0  0  0
 22 23  1  0  0  0
 22 41  1  0  0  0
 23 42  1  0  0  0
 24 28  1  0  0  0
 25 43  1  0  0  0
 25 44  1  0  0  0
 25 45  1  0  0  0
 26 27  1  0  0  0
 26 46  1  0  0  0
 26 47  1  0  0  0
 27 48  1  0  0  0
 28 49  1  0  0  0
 28 50  1  0  0  0
M  END
> <QPhAR in domain>
True

> <s_m_source_file>
iis-005-500-000--005-999-999_filtered_optim.maegz

> <r_epik_Charging_Adjusted_Penalty>
0.0

> <PRICERANGE_1MG>
50 - 100

> <Name>
MolPort-028-825-677

> <i_m_Source_File_Index>
48586

> <i_lp_mmshare_version>
36015

> <PUBCHEM_EXT_DATASOURCE_URL>
https://www.molport.com

> <s_lp_Force_Field>
OPLS3

> <r_epik_Ionization_Penalty>
5.02717E-8

> <r_epik_State_Penalty>
0.0

> <IS_SC>
Yes

> <r_epik_Ionization_Penalty_Neutral>
5.02717E-8

> <s_m_Source_Path>
/home/mrgulotta/data_server/CADD/LIBRERIE/OTTIMIZZATE/MOLPORT/ALL_STOCK_COMPOUNDS_FILTERED_NEW

> <i_m_source_file_index>
48586

> <PUBCHEM_EXT_SUBSTANCE_URL>
https://www.molport.com/shop/molecule-link/MolPort-028-825-677

> <VERIFIED_AMOUNT_MG>
30

> <r_epik_Ionization_Penalty_Charging>
0.0

> <r_lp_Energy>
28.2277

> <QC_METHOD>
NMR

> <QPhAR prediction>
6.775639233220874

> <i_epik_Tot_abs_Q>
0

> <i_epik_Tot_Q>
0

> <cdk:Title>
null

> <b_lp_Chiralities_Consistent>
1

> <s_m_entry_name>
iis-005-500-000--005-999-999_filtered.48586

> <i_f3d_flags>
0

> <PRICERANGE_5MG>
50 - 100

> <COMPOUND_STATE>
SOLID

> <s_m_entry_id>
194010

> <Molecule_Name>
MolPort-028-825-677

> <Score>
0.9386228039549271

> <BEST_LEAD_TIME>
10

> <s_lp_Variant>
MolPort-028-825-677-1

> <s_m_Source_File>
iis-005-500-000--005-999-999_filtered.sdf

> <r_lp_tautomer_probability>
1.0

> <UNVERIFIED_AMOUNT_MG>
30

$$$$
MolPort-006-628-739
XX    ILIB07022204093D

 65 69  0  0  1  0              1 V2000
    0.2552   -1.5513   -0.7400 F   0  0  0  0  0
    0.2701    0.1143   -2.1279 F   0  0  0  0  0
    1.9600   -1.2520   -2.0547 F   0  0  0  0  0
   -1.4443    1.9800    0.7214 O   0  0  0  0  0
   -2.7803   -0.6680    1.2407 N   0  0  0  0  0
   -2.6729   -1.4336    3.3418 N   0  0  0  0  0
   -3.2236    2.6758    2.0127 N   0  0  0  0  0
   -2.8701   -1.7554    2.0820 C   0  0  0  0  0
   -2.5088    0.4137    2.0469 C   0  0  0  0  0
   -2.4473   -0.0856    3.3271 C   0  0  0  0  0
   -2.9346   -0.6648   -0.1384 C   0  0  0  0  0
   -1.4263   -2.1602   -3.1904 C   0  0  0  0  0
   -2.2559   -1.4033   -2.2959 C   0  0  0  0  0
   -0.0291   -2.0576   -3.0498 C   0  0  0  0  0
   -4.1758    6.3379    1.6963 C   0  0  0  0  0
   -4.0527    4.9746    3.6787 C   0  0  0  0  0
   -2.0518   -1.4463   -0.9082 C   0  0  0  0  0
   -3.9541    0.1201   -0.6934 C   0  0  0  0  0
   -2.0469   -2.9561   -4.1621 C   0  0  0  0  0
   -3.2715   -0.6265   -2.8711 C   0  0  0  0  0
    0.7290   -2.8193   -3.9512 C   0  0  0  0  0
   -3.1953    6.6211    0.7351 C   0  0  0  0  0
   -5.0723    7.3027    2.1943 C   0  0  0  0  0
   -5.0762    4.5137    4.5195 C   0  0  0  0  0
   -2.8184    5.4551    4.1523 C   0  0  0  0  0
   -4.1328    0.1332   -2.0762 C   0  0  0  0  0
   -1.2627   -3.7061   -5.0371 C   0  0  0  0  0
    0.1277   -3.6250   -4.9297 C   0  0  0  0  0
   -3.0723    7.9199    0.2430 C   0  0  0  0  0
   -4.9258    8.5938    1.6724 C   0  0  0  0  0
   -4.8887    4.5352    5.9004 C   0  0  0  0  0
   -2.6621    5.4570    5.5469 C   0  0  0  0  0
   -3.9492    8.8984    0.7122 C   0  0  0  0  0
   -3.6729    5.0020    6.4062 C   0  0  0  0  0
    0.6003   -1.2021   -2.0107 C   0  0  0  0  0
   -2.3252    1.7310    1.5425 C   0  0  0  0  0
   -3.2002    4.0430    1.5747 C   0  0  0  0  0
   -4.2793    4.9473    2.2109 C   0  0  0  0  0
   -5.6973    4.4219    1.9546 C   0  0  0  0  0
   -3.9269    2.4118    2.6878 H   0  0  0  0  0
   -3.0764   -2.7072    1.6895 H   0  0  0  0  0
   -2.2590    0.4250    4.2251 H   0  0  0  0  0
   -1.3025   -2.0106   -0.4363 H   0  0  0  0  0
   -4.5755    0.6917   -0.0691 H   0  0  0  0  0
   -3.0945   -2.9842   -4.2269 H   0  0  0  0  0
   -3.3931   -0.6101   -3.9139 H   0  0  0  0  0
    1.7778   -2.7966   -3.9053 H   0  0  0  0  0
   -2.5610    5.8581    0.3916 H   0  0  0  0  0
   -5.7905    7.0317    2.9107 H   0  0  0  0  0
   -5.9735    4.1568    4.1073 H   0  0  0  0  0
   -2.0870    5.7822    3.4736 H   0  0  0  0  0
   -4.9032    0.7067   -2.5006 H   0  0  0  0  0
   -1.7191   -4.3168   -5.7591 H   0  0  0  0  0
    0.7242   -4.1776   -5.5940 H   0  0  0  0  0
   -2.3311    8.1447   -0.4659 H   0  0  0  0  0
   -5.5571    9.3668    1.9988 H   0  0  0  0  0
   -5.6535    4.2045    6.5393 H   0  0  0  0  0
   -1.7689    5.8059    5.9746 H   0  0  0  0  0
   -3.8843    9.8805    0.3465 H   0  0  0  0  0
   -3.5060    5.0155    7.4428 H   0  0  0  0  0
   -3.3489    4.0803    0.5360 H   0  0  0  0  0
   -2.2706    4.4703    1.8108 H   0  0  0  0  0
   -6.3320    5.2258    1.7235 H   0  0  0  0  0
   -5.6804    3.7469    1.1505 H   0  0  0  0  0
   -6.0502    3.9333    2.8144 H   0  0  0  0  0
  1 35  1  0  0  0
  2 35  1  0  0  0
  3 35  1  0  0  0
  4 36  2  0  0  0
  5  8  1  0  0  0
  5  9  1  0  0  0
  5 11  1  0  0  0
  6  8  2  0  0  0
  6 10  1  0  0  0
  7 36  1  0  0  0
  7 37  1  0  0  0
  7 40  1  0  0  0
  8 41  1  0  0  0
  9 10  2  0  0  0
  9 36  1  0  0  0
 10 42  1  0  0  0
 11 17  2  0  0  0
 11 18  1  0  0  0
 12 13  1  0  0  0
 12 14  2  0  0  0
 12 19  1  0  0  0
 13 17  1  0  0  0
 13 20  2  0  0  0
 14 21  1  0  0  0
 14 35  1  0  0  0
 15 22  2  0  0  0
 15 23  1  0  0  0
 15 38  1  0  0  0
 16 24  2  0  0  0
 16 25  1  0  0  0
 16 38  1  0  0  0
 17 43  1  0  0  0
 18 26  2  0  0  0
 18 44  1  0  0  0
 19 27  2  0  0  0
 19 45  1  0  0  0
 20 26  1  0  0  0
 20 46  1  0  0  0
 21 28  2  0  0  0
 21 47  1  0  0  0
 22 29  1  0  0  0
 22 48  1  0  0  0
 23 30  2  0  0  0
 23 49  1  0  0  0
 24 31  1  0  0  0
 24 50  1  0  0  0
 25 32  2  0  0  0
 25 51  1  0  0  0
 26 52  1  0  0  0
 27 28  1  0  0  0
 27 53  1  0  0  0
 28 54  1  0  0  0
 29 33  2  0  0  0
 29 55  1  0  0  0
 30 33  1  0  0  0
 30 56  1  0  0  0
 31 34  2  0  0  0
 31 57  1  0  0  0
 32 34  1  0  0  0
 32 58  1  0  0  0
 33 59  1  0  0  0
 34 60  1  0  0  0
 37 38  1  0  0  0
 37 61  1  0  0  0
 37 62  1  0  0  0
 38 39  1  0  0  0
 39 63  1  0  0  0
 39 64  1  0  0  0
 39 65  1  0  0  0
M  END
> <QPhAR in domain>
True

> <s_m_source_file>
iis-002-500-000--002-999-999_filtered_optim.maegz

> <r_epik_Charging_Adjusted_Penalty>
2.1318E-4

> <PRICERANGE_1MG>
50 - 100

> <Name>
MolPort-006-628-739

> <i_m_Source_File_Index>
43313

> <i_lp_mmshare_version>
36015

> <PUBCHEM_EXT_DATASOURCE_URL>
https://www.molport.com

> <s_lp_Force_Field>
OPLS3

> <r_epik_Ionization_Penalty>
2.16981E-4

> <r_epik_State_Penalty>
0.0

> <IS_SC>
Yes

> <r_epik_Ionization_Penalty_Neutral>
3.80165E-6

> <s_m_Source_Path>
/home/mrgulotta/data_server/CADD/LIBRERIE/OTTIMIZZATE/MOLPORT/ALL_STOCK_COMPOUNDS_FILTERED_NEW

> <i_m_source_file_index>
43313

> <PUBCHEM_EXT_SUBSTANCE_URL>
https://www.molport.com/shop/molecule-link/MolPort-006-628-739

> <VERIFIED_AMOUNT_MG>
20

> <r_epik_Ionization_Penalty_Charging>
2.1318E-4

> <r_lp_Energy>
64.587

> <QC_METHOD>
LCMS

> <QPhAR prediction>
6.775639233220874

> <i_epik_Tot_abs_Q>
0

> <i_epik_Tot_Q>
0

> <cdk:Title>
null

> <b_lp_Chiralities_Consistent>
1

> <s_m_entry_name>
iis-002-500-000--002-999-999_filtered.43313

> <i_f3d_flags>
0

> <PRICERANGE_5MG>
50 - 100

> <COMPOUND_STATE>
SOLID

> <s_m_entry_id>
156106

> <Molecule_Name>
MolPort-006-628-739

> <Score>
0.9106956954308497

> <BEST_LEAD_TIME>
10

> <s_lp_Variant>
MolPort-006-628-739-1

> <s_m_Source_File>
iis-002-500-000--002-999-999_filtered.sdf

> <r_lp_tautomer_probability>
1.0

> <UNVERIFIED_AMOUNT_MG>
20.0

$$$$
MolPort-044-715-426
XX    ILIB07022204093D

 50 53  0  0  1  0              1 V2000
   -3.6748   -1.0020   -3.3076 S   0  0  0  0  0
   -2.5996   -3.6699   -4.1992 S   0  0  0  0  0
   -2.6709    0.2237    0.9275 O   0  0  0  0  0
   -3.8916   -3.8438   -4.8340 O   0  0  0  0  0
   -1.9292   -4.8008   -3.5879 O   0  0  0  0  0
    4.0840   -1.3774   -7.0527 O   0  0  0  0  0
   -2.2500    0.3430    2.2373 N   0  0  0  0  0
   -1.5498   -2.8975   -5.2871 N   0  0  0  0  0
    2.6494   -2.1133   -5.4688 N   0  0  0  0  0
   -2.7949   -2.4346   -2.9756 C   0  0  0  0  0
   -3.3984   -0.3710   -1.7368 C   0  0  0  0  0
   -2.2812   -0.9800    0.4255 C   0  0  0  0  0
   -1.6040   -0.7969    2.5176 C   0  0  0  0  0
   -2.6650   -1.2559   -0.9766 C   0  0  0  0  0
    4.1523   -0.3229   -4.9355 C   0  0  0  0  0
    5.0859    1.5352   -3.1309 C   0  0  0  0  0
   -2.3467   -2.4570   -1.6694 C   0  0  0  0  0
   -1.5869   -1.6753    1.3926 C   0  0  0  0  0
    4.0547    1.0410   -5.2402 C   0  0  0  0  0
    4.7051   -0.8103   -3.7363 C   0  0  0  0  0
    4.5352    1.9834   -4.3320 C   0  0  0  0  0
    5.1738    0.1653   -2.8428 C   0  0  0  0  0
    3.6504   -1.2881   -5.9043 C   0  0  0  0  0
   -0.0888   -3.0137   -5.1504 C   0  0  0  0  0
    2.0410   -2.1152   -4.1289 C   0  0  0  0  0
    2.1172   -3.1367   -6.3730 C   0  0  0  0  0
    5.5938    2.5098   -2.1299 C   0  0  0  0  0
    0.5242   -1.9497   -4.2246 C   0  0  0  0  0
    0.6035   -3.0029   -6.5234 C   0  0  0  0  0
   -1.9249   -2.3458   -6.0454 H   0  0  0  0  0
   -3.7758    0.5736   -1.4766 H   0  0  0  0  0
   -1.1910   -0.9454    3.4715 H   0  0  0  0  0
   -1.8378   -3.2994   -1.3033 H   0  0  0  0  0
   -1.1999   -2.6276    1.1785 H   0  0  0  0  0
    3.6222    1.3468   -6.1468 H   0  0  0  0  0
    4.7459   -1.8445   -3.5592 H   0  0  0  0  0
    4.4890    3.0122   -4.5368 H   0  0  0  0  0
    5.5994   -0.1546   -1.9378 H   0  0  0  0  0
    0.1517   -3.9549   -4.7518 H   0  0  0  0  0
    2.2537   -3.0247   -3.6492 H   0  0  0  0  0
    2.4342   -1.3217   -3.5648 H   0  0  0  0  0
    2.5595   -3.0317   -7.3195 H   0  0  0  0  0
    2.3338   -4.0897   -5.9892 H   0  0  0  0  0
    6.5678    2.8034   -2.3901 H   0  0  0  0  0
    5.6052    2.0622   -1.1801 H   0  0  0  0  0
    4.9672    3.3522   -2.1124 H   0  0  0  0  0
    0.3130   -0.9932   -4.6027 H   0  0  0  0  0
    0.1138   -2.0443   -3.2628 H   0  0  0  0  0
    0.2498   -3.8060   -7.1000 H   0  0  0  0  0
    0.3922   -2.0994   -7.0148 H   0  0  0  0  0
  1 10  1  0  0  0
  1 11  1  0  0  0
  2  4  2  0  0  0
  2  5  2  0  0  0
  2  8  1  0  0  0
  2 10  1  0  0  0
  3  7  1  0  0  0
  3 12  1  0  0  0
  6 23  2  0  0  0
  7 13  2  0  0  0
  8 24  1  0  0  0
  8 30  1  0  0  0
  9 23  1  0  0  0
  9 25  1  0  0  0
  9 26  1  0  0  0
 10 17  2  0  0  0
 11 14  2  0  0  0
 11 31  1  0  0  0
 12 14  1  0  0  0
 12 18  2  0  0  0
 13 18  1  0  0  0
 13 32  1  0  0  0
 14 17  1  0  0  0
 15 19  2  0  0  0
 15 20  1  0  0  0
 15 23  1  0  0  0
 16 21  2  0  0  0
 16 22  1  0  0  0
 16 27  1  0  0  0
 17 33  1  0  0  0
 18 34  1  0  0  0
 19 21  1  0  0  0
 19 35  1  0  0  0
 20 22  2  0  0  0
 20 36  1  0  0  0
 21 37  1  0  0  0
 22 38  1  0  0  0
 24 28  1  0  0  0
 24 29  1  0  0  0
 24 39  1  0  0  0
 25 28  1  0  0  0
 25 40  1  0  0  0
 25 41  1  0  0  0
 26 29  1  0  0  0
 26 42  1  0  0  0
 26 43  1  0  0  0
 27 44  1  0  0  0
 27 45  1  0  0  0
 27 46  1  0  0  0
 28 47  1  0  0  0
 28 48  1  0  0  0
 29 49  1  0  0  0
 29 50  1  0  0  0
M  END
> <QPhAR in domain>
True

> <s_m_source_file>
iis-006-500-000--006-999-999_filtered_optim.maegz

> <r_epik_Charging_Adjusted_Penalty>
0.0

> <PRICERANGE_1MG>
< 50

> <Name>
MolPort-044-715-426

> <i_m_Source_File_Index>
130278

> <i_lp_mmshare_version>
36015

> <PUBCHEM_EXT_DATASOURCE_URL>
https://www.molport.com

> <s_lp_Force_Field>
OPLS3

> <r_epik_Ionization_Penalty>
0.00920478

> <r_epik_State_Penalty>
0.0

> <IS_SC>
Yes

> <r_epik_Ionization_Penalty_Neutral>
0.00920478

> <s_m_Source_Path>
/home/mrgulotta/data_server/CADD/LIBRERIE/OTTIMIZZATE/MOLPORT/ALL_STOCK_COMPOUNDS_FILTERED_NEW

> <i_m_source_file_index>
130278

> <PUBCHEM_EXT_SUBSTANCE_URL>
https://www.molport.com/shop/molecule-link/MolPort-044-715-426

> <VERIFIED_AMOUNT_MG>
5

> <r_epik_Ionization_Penalty_Charging>
0.0

> <r_lp_Energy>
25.4486

> <QC_METHOD>
LCMS

> <QPhAR prediction>
6.771989260435086

> <i_epik_Tot_abs_Q>
0

> <i_epik_Tot_Q>
0

> <cdk:Title>
null

> <b_lp_Chiralities_Consistent>
1

> <s_m_entry_name>
iis-006-500-000--006-999-999_filtered.130278

> <i_f3d_flags>
0

> <PRICERANGE_5MG>
50 - 100

> <COMPOUND_STATE>
FILM

> <s_m_entry_id>
130278

> <Molecule_Name>
MolPort-044-715-426

> <Score>
0.9138573300602472

> <BEST_LEAD_TIME>
12

> <s_lp_Variant>
MolPort-044-715-426-1

> <s_m_Source_File>
iis-006-500-000--006-999-999_filtered.sdf

> <r_lp_tautomer_probability>
1.0

> <UNVERIFIED_AMOUNT_MG>
5.0

$$$$
MolPort-007-938-265
XX    ILIB07022204093D

 57 60  0  0  1  0              1 V2000
   -4.4434   -1.2261   -3.8945 S   0  0  0  0  0
   -2.5879   -2.2432   -1.7036 S   0  0  0  0  0
    1.6567    1.3130    0.9380 O   0  0  0  0  0
   -3.5068    0.2688   -2.0449 N   0  0  0  0  0
   -4.2930    1.0938   -2.8281 N   0  0  0  0  0
   -2.6514   -1.1772    0.7090 N   0  0  0  0  0
    4.3105   -0.7319   -3.4492 N   0  0  0  0  0
    2.3027   -0.8225    0.3530 N   0  0  0  0  0
   -3.4854   -0.9788   -2.4766 C   0  0  0  0  0
   -4.8320    0.4297   -3.8213 C   0  0  0  0  0
   -1.8423   -1.3843   -0.3544 C   0  0  0  0  0
   -2.1582   -0.5159    1.7734 C   0  0  0  0  0
   -0.8308   -0.0424    1.8110 C   0  0  0  0  0
   -0.0186   -0.3041    0.6892 C   0  0  0  0  0
    2.6055   -2.0850   -4.6094 C   0  0  0  0  0
   -0.5305   -0.9678   -0.4208 C   0  0  0  0  0
   -2.9814   -0.2878    2.8760 C   0  0  0  0  0
   -0.3751    0.6511    2.9492 C   0  0  0  0  0
    1.8218   -1.3428   -5.5020 C   0  0  0  0  0
    2.0986   -3.1377   -3.8232 C   0  0  0  0  0
   -2.5264    0.3932    4.0098 C   0  0  0  0  0
   -1.2173    0.8672    4.0352 C   0  0  0  0  0
    0.4636   -1.6328   -5.6270 C   0  0  0  0  0
    0.7307   -3.4062   -3.9795 C   0  0  0  0  0
   -0.0723   -2.6738   -4.8652 C   0  0  0  0  0
    1.3652    0.1506    0.6648 C   0  0  0  0  0
    4.0488   -1.7510   -4.4883 C   0  0  0  0  0
    3.8750   -1.1714   -2.1055 C   0  0  0  0  0
    3.7119   -0.5493    0.3231 C   0  0  0  0  0
    5.7227   -0.1697   -3.4346 C   0  0  0  0  0
   -5.7148    1.0723   -4.8066 C   0  0  0  0  0
    4.1621   -0.0957   -1.0635 C   0  0  0  0  0
    2.0023   -1.7622    0.1366 H   0  0  0  0  0
    0.0370   -1.1558   -1.2840 H   0  0  0  0  0
   -3.9738   -0.6309    2.8702 H   0  0  0  0  0
    0.6104    1.0116    2.9847 H   0  0  0  0  0
    2.2579   -0.5751   -6.0704 H   0  0  0  0  0
    2.7361   -3.6626   -3.1747 H   0  0  0  0  0
   -3.1693    0.5410    4.8267 H   0  0  0  0  0
   -0.8662    1.3886    4.8762 H   0  0  0  0  0
   -0.1345   -1.0730   -6.2839 H   0  0  0  0  0
    0.2798   -4.1749   -3.4243 H   0  0  0  0  0
   -1.0900   -2.9174   -4.9514 H   0  0  0  0  0
    4.3765   -1.3935   -5.4196 H   0  0  0  0  0
    4.5654   -2.6337   -4.2508 H   0  0  0  0  0
    4.3908   -2.0463   -1.8392 H   0  0  0  0  0
    2.8428   -1.3635   -2.1176 H   0  0  0  0  0
    4.2425   -1.4189    0.5777 H   0  0  0  0  0
    3.9356    0.2114    1.0114 H   0  0  0  0  0
    6.2386   -0.4972   -4.2884 H   0  0  0  0  0
    6.2232   -0.5030   -2.5739 H   0  0  0  0  0
    5.6817    0.8795   -3.4314 H   0  0  0  0  0
   -5.9203    0.3979   -5.5847 H   0  0  0  0  0
   -5.2415    1.9242   -5.1975 H   0  0  0  0  0
   -6.6129    1.3536   -4.3409 H   0  0  0  0  0
    3.6458    0.7830   -1.3161 H   0  0  0  0  0
    5.1934    0.0997   -1.0372 H   0  0  0  0  0
  1  9  1  0  0  0
  1 10  1  0  0  0
  2  9  1  0  0  0
  2 11  1  0  0  0
  3 26  2  0  0  0
  4  5  1  0  0  0
  4  9  2  0  0  0
  5 10  2  0  0  0
  6 11  2  0  0  0
  6 12  1  0  0  0
  7 27  1  0  0  0
  7 28  1  0  0  0
  7 30  1  0  0  0
  8 26  1  0  0  0
  8 29  1  0  0  0
  8 33  1  0  0  0
 10 31  1  0  0  0
 11 16  1  0  0  0
 12 13  2  0  0  0
 12 17  1  0  0  0
 13 14  1  0  0  0
 13 18  1  0  0  0
 14 16  2  0  0  0
 14 26  1  0  0  0
 15 19  2  0  0  0
 15 20  1  0  0  0
 15 27  1  0  0  0
 16 34  1  0  0  0
 17 21  2  0  0  0
 17 35  1  0  0  0
 18 22  2  0  0  0
 18 36  1  0  0  0
 19 23  1  0  0  0
 19 37  1  0  0  0
 20 24  2  0  0  0
 20 38  1  0  0  0
 21 22  1  0  0  0
 21 39  1  0  0  0
 22 40  1  0  0  0
 23 25  2  0  0  0
 23 41  1  0  0  0
 24 25  1  0  0  0
 24 42  1  0  0  0
 25 43  1  0  0  0
 27 44  1  0  0  0
 27 45  1  0  0  0
 28 32  1  0  0  0
 28 46  1  0  0  0
 28 47  1  0  0  0
 29 32  1  0  0  0
 29 48  1  0  0  0
 29 49  1  0  0  0
 30 50  1  0  0  0
 30 51  1  0  0  0
 30 52  1  0  0  0
 31 53  1  0  0  0
 31 54  1  0  0  0
 31 55  1  0  0  0
 32 56  1  0  0  0
 32 57  1  0  0  0
M  END
> <QPhAR in domain>
True

> <s_m_source_file>
iis-003-000-000--003-499-999_filtered_optim.maegz

> <PRICERANGE_50MG>
100 - 250

> <r_epik_Charging_Adjusted_Penalty>
0.206956

> <PRICERANGE_1MG>
50 - 100

> <Name>
MolPort-007-938-265

> <i_m_Source_File_Index>
35115

> <i_lp_mmshare_version>
36015

> <PUBCHEM_EXT_DATASOURCE_URL>
https://www.molport.com

> <s_lp_Force_Field>
OPLS3

> <r_epik_Ionization_Penalty>
0.108593

> <r_epik_State_Penalty>
0.0983747

> <IS_SC>
Yes

> <r_epik_Ionization_Penalty_Neutral>
1.18045E-5

> <s_m_Source_Path>
/home/mrgulotta/data_server/CADD/LIBRERIE/OTTIMIZZATE/MOLPORT/ALL_STOCK_COMPOUNDS_FILTERED_NEW

> <i_m_source_file_index>
35115

> <PUBCHEM_EXT_SUBSTANCE_URL>
https://www.molport.com/shop/molecule-link/MolPort-007-938-265

> <VERIFIED_AMOUNT_MG>
100

> <r_epik_Ionization_Penalty_Charging>
0.108582

> <r_lp_Energy>
50.8464

> <QC_METHOD>
NMR

> <QPhAR prediction>
6.770075502402996

> <i_epik_Tot_abs_Q>
1

> <i_epik_Tot_Q>
1

> <cdk:Title>
null

> <b_lp_Chiralities_Consistent>
1

> <s_m_entry_name>
iis-003-000-000--003-499-999_filtered.35115

> <i_f3d_flags>
0

> <PRICERANGE_5MG>
50 - 100

> <COMPOUND_STATE>
SOLID

> <s_m_entry_id>
193544

> <Molecule_Name>
MolPort-007-938-265

> <Score>
0.9338489397252117

> <BEST_LEAD_TIME>
10

> <s_lp_Variant>
MolPort-007-938-265-1

> <s_m_Source_File>
iis-003-000-000--003-499-999_filtered.sdf

> <r_lp_tautomer_probability>
1.0

> <UNVERIFIED_AMOUNT_MG>
100

$$$$
MolPort-007-760-645
XX    ILIB07022204093D

 60 64  0  0  1  0              1 V2000
  -12.0938   -0.9543   -1.2520 O   0  0  0  0  0
   -6.0742   -1.1631   -5.1328 O   0  0  0  0  0
  -10.5938    0.7493   -1.6509 O   0  0  0  0  0
   -1.7974   -1.0024   -0.4379 N   0  0  0  0  0
   -2.9961   -0.4474    1.5952 N   0  0  0  0  0
    0.2837   -1.0205    0.3267 N   0  0  0  0  0
   -7.3340   -1.8374   -3.3799 N   0  0  0  0  0
   -1.8818   -0.6987    0.8906 C   0  0  0  0  0
   -0.4652   -1.1919   -0.7537 C   0  0  0  0  0
   -0.5779   -0.7117    1.3481 C   0  0  0  0  0
   -2.7295   -0.1801    2.8975 C   0  0  0  0  0
   -2.8730   -1.1016   -1.3086 C   0  0  0  0  0
   -0.0185   -1.5273   -2.0762 C   0  0  0  0  0
   -5.0156   -1.3418   -3.0234 C   0  0  0  0  0
   -0.3510   -0.4293    2.7041 C   0  0  0  0  0
   -1.4668   -0.1462    3.4980 C   0  0  0  0  0
   -3.4961   -2.3477   -1.4595 C   0  0  0  0  0
   -3.2881    0.0591   -1.9897 C   0  0  0  0  0
    1.3550   -1.7007   -2.2920 C   0  0  0  0  0
   -0.9863   -1.6714   -3.0889 C   0  0  0  0  0
   -4.5742   -2.4736   -2.3340 C   0  0  0  0  0
   -4.3789   -0.1027   -2.8555 C   0  0  0  0  0
    1.8135   -2.0186   -3.5693 C   0  0  0  0  0
   -0.4905   -1.9990   -4.3594 C   0  0  0  0  0
    0.8806   -2.1748   -4.5977 C   0  0  0  0  0
  -11.0156   -0.5464   -1.6606 C   0  0  0  0  0
   -6.1504   -1.4307   -3.9336 C   0  0  0  0  0
  -11.4062    1.7944   -1.1431 C   0  0  0  0  0
   -7.5410   -2.1816   -1.9692 C   0  0  0  0  0
   -8.5234   -1.9673   -4.2188 C   0  0  0  0  0
   -9.9492   -1.4453   -2.1934 C   0  0  0  0  0
   -8.6562   -1.3286   -1.3721 C   0  0  0  0  0
   -9.6719   -1.1216   -3.6709 C   0  0  0  0  0
  -10.6367    3.0957   -1.2847 C   0  0  0  0  0
   -3.5151    0.0286    3.5621 H   0  0  0  0  0
    0.6274   -0.4362    3.0852 H   0  0  0  0  0
   -1.3765    0.0871    4.5178 H   0  0  0  0  0
   -3.1502   -3.1769   -0.9161 H   0  0  0  0  0
   -2.7867    0.9681   -1.8318 H   0  0  0  0  0
    2.0296   -1.5910   -1.4949 H   0  0  0  0  0
   -2.0033   -1.5342   -2.8666 H   0  0  0  0  0
   -5.0529   -3.3968   -2.4794 H   0  0  0  0  0
   -4.7172    0.7376   -3.3865 H   0  0  0  0  0
    2.8422   -2.1360   -3.7437 H   0  0  0  0  0
   -1.1519   -2.1196   -5.1660 H   0  0  0  0  0
    1.2026   -2.4272   -5.5647 H   0  0  0  0  0
  -11.6237    1.6092   -0.1327 H   0  0  0  0  0
  -12.3008    1.8400   -1.6910 H   0  0  0  0  0
   -7.8062   -3.1946   -1.8914 H   0  0  0  0  0
   -6.6546   -2.0097   -1.4333 H   0  0  0  0  0
   -8.3015   -1.6446   -5.1930 H   0  0  0  0  0
   -8.8262   -2.9724   -4.2435 H   0  0  0  0  0
  -10.2796   -2.4412   -2.1551 H   0  0  0  0  0
   -8.8537   -1.6473   -0.3913 H   0  0  0  0  0
   -8.3583   -0.3218   -1.3596 H   0  0  0  0  0
   -9.4255   -0.1039   -3.7492 H   0  0  0  0  0
  -10.5433   -1.3143   -4.2241 H   0  0  0  0  0
   -9.9686    3.1965   -0.4810 H   0  0  0  0  0
  -11.3094    3.9019   -1.2839 H   0  0  0  0  0
  -10.1000    3.0885   -2.1872 H   0  0  0  0  0
  1 26  2  0  0  0
  2 27  2  0  0  0
  3 26  1  0  0  0
  3 28  1  0  0  0
  4  8  1  0  0  0
  4  9  1  0  0  0
  4 12  1  0  0  0
  5  8  2  0  0  0
  5 11  1  0  0  0
  6  9  2  0  0  0
  6 10  1  0  0  0
  7 27  1  0  0  0
  7 29  1  0  0  0
  7 30  1  0  0  0
  8 10  1  0  0  0
  9 13  1  0  0  0
 10 15  2  0  0  0
 11 16  2  0  0  0
 11 35  1  0  0  0
 12 17  2  0  0  0
 12 18  1  0  0  0
 13 19  2  0  0  0
 13 20  1  0  0  0
 14 21  2  0  0  0
 14 22  1  0  0  0
 14 27  1  0  0  0
 15 16  1  0  0  0
 15 36  1  0  0  0
 16 37  1  0  0  0
 17 21  1  0  0  0
 17 38  1  0  0  0
 18 22  2  0  0  0
 18 39  1  0  0  0
 19 23  1  0  0  0
 19 40  1  0  0  0
 20 24  2  0  0  0
 20 41  1  0  0  0
 21 42  1  0  0  0
 22 43  1  0  0  0
 23 25  2  0  0  0
 23 44  1  0  0  0
 24 25  1  0  0  0
 24 45  1  0  0  0
 25 46  1  0  0  0
 26 31  1  0  0  0
 28 34  1  0  0  0
 28 47  1  0  0  0
 28 48  1  0  0  0
 29 32  1  0  0  0
 29 49  1  0  0  0
 29 50  1  0  0  0
 30 33  1  0  0  0
 30 51  1  0  0  0
 30 52  1  0  0  0
 31 32  1  0  0  0
 31 33  1  0  0  0
 31 53  1  0  0  0
 32 54  1  0  0  0
 32 55  1  0  0  0
 33 56  1  0  0  0
 33 57  1  0  0  0
 34 58  1  0  0  0
 34 59  1  0  0  0
 34 60  1  0  0  0
M  END
> <QPhAR in domain>
True

> <s_m_source_file>
iis-003-000-000--003-499-999_filtered_optim.maegz

> <PRICERANGE_50MG>
100 - 250

> <r_epik_Charging_Adjusted_Penalty>
6.62216E-6

> <PRICERANGE_1MG>
50 - 100

> <s_epik_Chemistry_Notes>
This compound has an ester and may undergo hydrolysis at high or low pH.

> <Name>
MolPort-007-760-645

> <i_m_Source_File_Index>
23455

> <i_lp_mmshare_version>
36015

> <PUBCHEM_EXT_DATASOURCE_URL>
https://www.molport.com

> <s_lp_Force_Field>
OPLS3

> <r_epik_Ionization_Penalty>
7.04992E-6

> <r_epik_State_Penalty>
0.0

> <IS_SC>
Yes

> <r_epik_Ionization_Penalty_Neutral>
4.27757E-7

> <s_m_Source_Path>
/home/mrgulotta/data_server/CADD/LIBRERIE/OTTIMIZZATE/MOLPORT/ALL_STOCK_COMPOUNDS_FILTERED_NEW

> <i_m_source_file_index>
23455

> <PUBCHEM_EXT_SUBSTANCE_URL>
https://www.molport.com/shop/molecule-link/MolPort-007-760-645

> <VERIFIED_AMOUNT_MG>
100

> <r_epik_Ionization_Penalty_Charging>
6.62216E-6

> <r_lp_Energy>
57.8727

> <QC_METHOD>
NMR

> <QPhAR prediction>
6.766236701102554

> <i_epik_Tot_abs_Q>
0

> <i_epik_Tot_Q>
0

> <cdk:Title>
null

> <b_lp_Chiralities_Consistent>
1

> <s_m_entry_name>
iis-003-000-000--003-499-999_filtered.23455

> <i_f3d_flags>
0

> <PRICERANGE_5MG>
50 - 100

> <COMPOUND_STATE>
SOLID

> <s_m_entry_id>
181884

> <Molecule_Name>
MolPort-007-760-645

> <Score>
0.9316654339401532

> <BEST_LEAD_TIME>
10

> <s_lp_Variant>
MolPort-007-760-645-1

> <s_m_Source_File>
iis-003-000-000--003-499-999_filtered.sdf

> <r_lp_tautomer_probability>
1.0

> <UNVERIFIED_AMOUNT_MG>
100

$$$$
MolPort-046-556-849
XX    ILIB07022204093D

 58 62  0  0  1  0              1 V2000
   -1.5469   -2.3203   -1.1191 S   0  0  0  0  0
   -2.6533   -3.6396   -4.4043 O   0  0  0  0  0
    2.8896   -3.3896   -4.3809 O   0  0  0  0  0
    3.4365   -3.4619   -7.8945 O   0  0  0  0  0
    5.6797   -2.9199   -5.0625 O   0  0  0  0  0
   -2.6387   -0.3595    0.6011 N   0  0  0  0  0
   -3.5303    0.6594    0.4355 N   0  0  0  0  0
   -0.5200   -2.9541   -4.1016 N   0  0  0  0  0
   -2.4277   -1.0381   -0.5469 C   0  0  0  0  0
   -2.2314   -2.0820   -2.7158 C   0  0  0  0  0
   -3.8721    0.5964   -0.8711 C   0  0  0  0  0
   -2.0889   -0.5632    1.8589 C   0  0  0  0  0
   -3.1904   -0.4530   -1.4722 C   0  0  0  0  0
   -3.1240   -1.0078   -2.7451 C   0  0  0  0  0
   -2.9521   -0.6365    2.9600 C   0  0  0  0  0
   -0.6902   -0.6936    1.9609 C   0  0  0  0  0
   -2.4229   -0.8333    4.2344 C   0  0  0  0  0
   -0.1930   -0.8979    3.2568 C   0  0  0  0  0
   -1.0396   -0.9714    4.3730 C   0  0  0  0  0
   -1.8516   -2.9404   -3.7852 C   0  0  0  0  0
    2.1348   -2.5244   -5.2422 C   0  0  0  0  0
    4.1055   -2.6650   -6.9141 C   0  0  2  0  0
    4.7734   -3.6211   -5.9121 C   0  0  2  0  0
    3.7412   -4.3262   -5.0371 C   0  0  0  0  0
    0.4291   -2.1299   -3.3721 C   0  0  0  0  0
    0.0160   -3.9375   -5.0293 C   0  0  0  0  0
   -4.8340    1.5635   -1.4160 C   0  0  0  0  0
    3.0840   -1.7646   -6.1992 C   0  0  0  0  0
    1.4448   -1.4883   -4.3184 C   0  0  0  0  0
    1.0239   -3.3018   -5.9883 C   0  0  0  0  0
    5.1387   -1.8120   -7.6582 C   0  0  0  0  0
    2.4750   -3.6568   -7.5807 H   0  0  0  0  0
    5.3554   -1.9499   -4.9406 H   0  0  0  0  0
   -3.6087   -0.7522   -3.6408 H   0  0  0  0  0
   -3.9888   -0.5434    2.8215 H   0  0  0  0  0
   -0.0933   -0.6357    1.0990 H   0  0  0  0  0
   -3.0611   -0.8753    5.0671 H   0  0  0  0  0
    0.8403   -1.0007    3.4125 H   0  0  0  0  0
   -0.6206   -1.1326    5.3222 H   0  0  0  0  0
    5.2949   -4.3589   -6.4471 H   0  0  0  0  0
    4.2489   -4.9003   -4.3193 H   0  0  0  0  0
    3.1638   -4.9576   -5.6457 H   0  0  0  0  0
    0.9465   -2.7234   -2.6774 H   0  0  0  0  0
   -0.0859   -1.3675   -2.8662 H   0  0  0  0  0
   -0.7677   -4.3507   -5.5928 H   0  0  0  0  0
    0.4996   -4.6988   -4.4916 H   0  0  0  0  0
   -5.7904    1.3590   -1.0340 H   0  0  0  0  0
   -4.5475    2.5353   -1.1404 H   0  0  0  0  0
   -4.8517    1.4875   -2.4631 H   0  0  0  0  0
    2.5200   -1.2849   -6.9437 H   0  0  0  0  0
    3.6284   -1.0490   -5.6570 H   0  0  0  0  0
    0.9373   -0.7801   -4.9044 H   0  0  0  0  0
    2.1696   -1.0037   -3.7333 H   0  0  0  0  0
    1.4569   -4.0686   -6.5601 H   0  0  0  0  0
    0.5020   -2.6459   -6.6206 H   0  0  0  0  0
    4.7810   -0.8290   -7.7489 H   0  0  0  0  0
    5.3019   -2.2147   -8.6141 H   0  0  0  0  0
    6.0411   -1.8079   -7.1214 H   0  0  0  0  0
  1  9  1  0  0  0
  1 10  1  0  0  0
  2 20  2  0  0  0
  3 21  1  0  0  0
  3 24  1  0  0  0
  4 22  1  0  0  0
  4 32  1  0  0  0
  5 23  1  0  0  0
  5 33  1  0  0  0
  6  7  1  0  0  0
  6  9  1  0  0  0
  6 12  1  0  0  0
  7 11  2  0  0  0
  8 20  1  0  0  0
  8 25  1  0  0  0
  8 26  1  0  0  0
  9 13  2  0  0  0
 10 14  2  0  0  0
 10 20  1  0  0  0
 11 13  1  0  0  0
 11 27  1  0  0  0
 12 15  2  0  0  0
 12 16  1  0  0  0
 13 14  1  0  0  0
 14 34  1  0  0  0
 15 17  1  0  0  0
 15 35  1  0  0  0
 16 18  2  0  0  0
 16 36  1  0  0  0
 17 19  2  0  0  0
 17 37  1  0  0  0
 18 19  1  0  0  0
 18 38  1  0  0  0
 19 39  1  0  0  0
 21 28  1  0  0  0
 21 29  1  0  0  0
 21 30  1  0  0  0
 22 23  1  0  0  0
 22 28  1  0  0  0
 22 31  1  0  0  0
 23 24  1  0  0  0
 23 40  1  0  0  0
 24 41  1  0  0  0
 24 42  1  0  0  0
 25 29  1  0  0  0
 25 43  1  0  0  0
 25 44  1  0  0  0
 26 30  1  0  0  0
 26 45  1  0  0  0
 26 46  1  0  0  0
 27 47  1  0  0  0
 27 48  1  0  0  0
 27 49  1  0  0  0
 28 50  1  0  0  0
 28 51  1  0  0  0
 29 52  1  0  0  0
 29 53  1  0  0  0
 30 54  1  0  0  0
 30 55  1  0  0  0
 31 56  1  0  0  0
 31 57  1  0  0  0
 31 58  1  0  0  0
M  END
> <QPhAR in domain>
True

> <s_m_source_file>
iis-007-000-000--007-499-999_filtered_optim.maegz

> <r_epik_Charging_Adjusted_Penalty>
0.0

> <PRICERANGE_1MG>
< 50

> <Name>
MolPort-046-556-849

> <i_m_Source_File_Index>
135069

> <i_lp_mmshare_version>
36015

> <PUBCHEM_EXT_DATASOURCE_URL>
https://www.molport.com

> <s_lp_Force_Field>
OPLS3

> <r_epik_Ionization_Penalty>
1.00387E-5

> <r_epik_State_Penalty>
0.0

> <IS_SC>
Yes

> <r_epik_Ionization_Penalty_Neutral>
1.00387E-5

> <s_m_Source_Path>
/home/mrgulotta/data_server/CADD/LIBRERIE/OTTIMIZZATE/MOLPORT/ALL_STOCK_COMPOUNDS_FILTERED_NEW

> <i_m_source_file_index>
135069

> <PUBCHEM_EXT_SUBSTANCE_URL>
https://www.molport.com/shop/molecule-link/MolPort-046-556-849

> <VERIFIED_AMOUNT_MG>
5

> <r_epik_Ionization_Penalty_Charging>
0.0

> <r_lp_Energy>
39.8307

> <QC_METHOD>
LCMS

> <QPhAR prediction>
6.76573173585634

> <i_epik_Tot_abs_Q>
0

> <i_epik_Tot_Q>
0

> <cdk:Title>
null

> <b_lp_Chiralities_Consistent>
1

> <s_m_entry_name>
iis-007-000-000--007-499-999_filtered.135069

> <i_f3d_flags>
0

> <PRICERANGE_5MG>
50 - 100

> <COMPOUND_STATE>
FILM

> <s_m_entry_id>
272748

> <Molecule_Name>
MolPort-046-556-849

> <Score>
0.9395045161030513

> <BEST_LEAD_TIME>
12

> <s_lp_Variant>
MolPort-046-556-849-1

> <s_m_Source_File>
iis-007-000-000--007-499-999_filtered.sdf

> <r_lp_tautomer_probability>
1.0

> <UNVERIFIED_AMOUNT_MG>
5.0

$$$$
MolPort-028-884-895
XX    ILIB07022204093D

 68 71  0  0  1  0              1 V2000
   -0.7795    2.6533   -3.2881 O   0  0  0  0  0
   -3.4072    3.8213    0.2299 O   0  0  0  0  0
   -2.0137   -1.5811    0.0136 N   0  0  0  0  0
   -0.6304    1.8516   -1.1147 N   0  0  0  0  0
   -3.1943   -1.3091   -0.6580 C   0  0  0  0  0
   -0.9465   -1.4482   -0.8484 C   0  0  0  0  0
   -2.8516   -0.9421   -1.9619 C   0  0  0  0  0
   -1.4253   -0.9690   -2.0547 C   0  0  0  0  0
   -1.8203   -0.8643    2.3223 C   0  0  0  0  0
    1.8076   -2.8301   -5.3281 C   0  0  0  0  0
   -1.6743    1.2676    4.0605 C   0  0  0  0  0
   -4.5332   -1.3525   -0.2368 C   0  0  0  0  0
   -3.8838   -0.6377   -2.8789 C   0  0  0  0  0
   -3.0029   -0.3124    2.8330 C   0  0  0  0  0
   -0.5371   -0.3893    2.6543 C   0  0  0  0  0
    1.2085   -3.7256   -6.2246 C   0  0  0  0  0
    3.0947   -3.0176   -4.7891 C   0  0  0  0  0
   -2.9316    0.7729    3.7051 C   0  0  0  0  0
   -0.5027    0.6985    3.5391 C   0  0  0  0  0
   -5.5352   -1.0366   -1.1611 C   0  0  0  0  0
   -5.2246   -0.6948   -2.4775 C   0  0  0  0  0
    1.8975   -4.8750   -6.6074 C   0  0  0  0  0
    3.7617   -4.1816   -5.2031 C   0  0  0  0  0
    3.1787   -5.0918   -6.0977 C   0  0  0  0  0
   -0.4296    1.7910   -2.4863 C   0  0  0  0  0
   -2.7871    2.7129   -0.4006 C   0  0  0  0  0
   -4.8164    3.6787    0.3481 C   0  0  0  0  0
   -1.9238   -2.0146    1.3887 C   0  0  0  0  0
   -1.2856    2.9600   -0.4799 C   0  0  0  0  0
   -0.6084   -0.6504   -3.2334 C   0  0  1  0  0
    1.0498   -1.6157   -4.9297 C   0  0  0  0  0
   -1.5571    2.4111    5.0000 C   0  0  0  0  0
    0.3160    0.5271   -2.8896 C   0  0  0  0  0
    0.1981   -1.8838   -3.6865 C   0  0  0  0  0
   -0.3108    1.0975   -0.5237 H   0  0  0  0  0
    0.0213   -1.7003   -0.5285 H   0  0  0  0  0
   -4.7640   -1.6177    0.7526 H   0  0  0  0  0
   -3.6468   -0.3675   -3.8655 H   0  0  0  0  0
   -3.9323   -0.7164    2.5581 H   0  0  0  0  0
    0.3144   -0.8472    2.2447 H   0  0  0  0  0
    0.2487   -3.5277   -6.6017 H   0  0  0  0  0
    3.4937   -2.3097   -4.1242 H   0  0  0  0  0
   -3.7998    1.2178    4.0935 H   0  0  0  0  0
    0.4348    1.0866    3.8093 H   0  0  0  0  0
   -6.5435   -1.0541   -0.8688 H   0  0  0  0  0
   -5.9882   -0.4811   -3.1658 H   0  0  0  0  0
    1.4517   -5.5589   -7.2677 H   0  0  0  0  0
    4.7251   -4.3913   -4.8419 H   0  0  0  0  0
    3.7197   -5.9453   -6.3829 H   0  0  0  0  0
   -3.1776    2.5972   -1.3684 H   0  0  0  0  0
   -2.9729    1.8434    0.1580 H   0  0  0  0  0
   -5.0680    3.5102    1.3535 H   0  0  0  0  0
   -5.2863    4.5554    0.0119 H   0  0  0  0  0
   -5.1359    2.8651   -0.2337 H   0  0  0  0  0
   -2.7815   -2.5664    1.6385 H   0  0  0  0  0
   -1.0723   -2.6167    1.5109 H   0  0  0  0  0
   -1.1112    3.8342   -1.0348 H   0  0  0  0  0
   -0.9066    3.0808    0.4918 H   0  0  0  0  0
   -1.2358   -0.3889   -4.0337 H   0  0  0  0  0
    0.4167   -1.3249   -5.7152 H   0  0  0  0  0
    1.7222   -0.8381   -4.7159 H   0  0  0  0  0
   -2.3913    3.0396    4.8921 H   0  0  0  0  0
   -1.5150    2.0514    5.9856 H   0  0  0  0  0
   -0.6821    2.9510    4.7868 H   0  0  0  0  0
    0.9350    0.2187   -2.0995 H   0  0  0  0  0
    0.9027    0.7226   -3.7382 H   0  0  0  0  0
    0.8445   -2.1822   -2.9147 H   0  0  0  0  0
   -0.4611   -2.6688   -3.9141 H   0  0  0  0  0
  1 25  2  0  0  0
  2 26  1  0  0  0
  2 27  1  0  0  0
  3  5  1  0  0  0
  3  6  1  0  0  0
  3 28  1  0  0  0
  4 25  1  0  0  0
  4 29  1  0  0  0
  4 35  1  0  0  0
  5  7  2  0  0  0
  5 12  1  0  0  0
  6  8  2  0  0  0
  6 36  1  0  0  0
  7  8  1  0  0  0
  7 13  1  0  0  0
  8 30  1  0  0  0
  9 14  2  0  0  0
  9 15  1  0  0  0
  9 28  1  0  0  0
 10 16  2  0  0  0
 10 17  1  0  0  0
 10 31  1  0  0  0
 11 18  2  0  0  0
 11 19  1  0  0  0
 11 32  1  0  0  0
 12 20  2  0  0  0
 12 37  1  0  0  0
 13 21  2  0  0  0
 13 38  1  0  0  0
 14 18  1  0  0  0
 14 39  1  0  0  0
 15 19  2  0  0  0
 15 40  1  0  0  0
 16 22  1  0  0  0
 16 41  1  0  0  0
 17 23  2  0  0  0
 17 42  1  0  0  0
 18 43  1  0  0  0
 19 44  1  0  0  0
 20 21  1  0  0  0
 20 45  1  0  0  0
 21 46  1  0  0  0
 22 24  2  0  0  0
 22 47  1  0  0  0
 23 24  1  0  0  0
 23 48  1  0  0  0
 24 49  1  0  0  0
 25 33  1  0  0  0
 26 29  1  0  0  0
 26 50  1  0  0  0
 26 51  1  0  0  0
 27 52  1  0  0  0
 27 53  1  0  0  0
 27 54  1  0  0  0
 28 55  1  0  0  0
 28 56  1  0  0  0
 29 57  1  0  0  0
 29 58  1  0  0  0
 30 33  1  0  0  0
 30 34  1  0  0  0
 30 59  1  0  0  0
 31 34  1  0  0  0
 31 60  1  0  0  0
 31 61  1  0  0  0
 32 62  1  0  0  0
 32 63  1  0  0  0
 32 64  1  0  0  0
 33 65  1  0  0  0
 33 66  1  0  0  0
 34 67  1  0  0  0
 34 68  1  0  0  0
M  END
> <QPhAR in domain>
True

> <s_m_source_file>
iis-005-500-000--005-999-999_filtered_optim.maegz

> <r_epik_Charging_Adjusted_Penalty>
0.0

> <PRICERANGE_1MG>
50 - 100

> <Name>
MolPort-028-884-895

> <i_m_Source_File_Index>
56083

> <i_lp_mmshare_version>
36015

> <PUBCHEM_EXT_DATASOURCE_URL>
https://www.molport.com

> <s_lp_Force_Field>
OPLS3

> <r_epik_Ionization_Penalty>
2.59437E-8

> <r_epik_State_Penalty>
0.0

> <IS_SC>
Yes

> <r_epik_Ionization_Penalty_Neutral>
2.59437E-8

> <s_m_Source_Path>
/home/mrgulotta/data_server/CADD/LIBRERIE/OTTIMIZZATE/MOLPORT/ALL_STOCK_COMPOUNDS_FILTERED_NEW

> <i_m_source_file_index>
56083

> <PUBCHEM_EXT_SUBSTANCE_URL>
https://www.molport.com/shop/molecule-link/MolPort-028-884-895

> <VERIFIED_AMOUNT_MG>
30

> <r_epik_Ionization_Penalty_Charging>
0.0

> <r_lp_Energy>
30.5779

> <QC_METHOD>
LCMS

> <QPhAR prediction>
6.765152665736544

> <i_epik_Tot_abs_Q>
0

> <i_epik_Tot_Q>
0

> <cdk:Title>
null

> <b_lp_Chiralities_Consistent>
1

> <s_m_entry_name>
iis-005-500-000--005-999-999_filtered.56083

> <i_f3d_flags>
0

> <PRICERANGE_5MG>
50 - 100

> <COMPOUND_STATE>
SOLID

> <s_m_entry_id>
201507

> <Molecule_Name>
MolPort-028-884-895

> <Score>
0.9354415084788

> <BEST_LEAD_TIME>
10

> <s_lp_Variant>
MolPort-028-884-895-1

> <s_m_Source_File>
iis-005-500-000--005-999-999_filtered.sdf

> <r_lp_tautomer_probability>
1.0

> <UNVERIFIED_AMOUNT_MG>
30

$$$$
MolPort-006-646-195
XX    ILIB07022204093D

 60 63  0  0  1  0              1 V2000
   -0.2728    0.7139    5.5977 O   0  0  0  0  0
   -1.1606    0.2787   -4.0840 O   0  0  0  0  0
   -3.1309   -1.0034    0.3086 N   0  0  0  0  0
    0.5906   -0.7444   -2.9863 N   0  0  0  0  0
   -0.6853    0.4379    4.3145 C   0  0  0  0  0
   -3.5957   -1.3281   -0.9124 C   0  0  0  0  0
   -1.8906   -0.4739    0.4077 C   0  0  0  0  0
   -2.8340   -1.1265   -2.0811 C   0  0  0  0  0
   -1.4648   -0.1700    1.7446 C   0  0  0  0  0
   -1.5576   -0.5486   -1.9302 C   0  0  0  0  0
    1.7988   -4.0840   -5.5859 C   0  0  0  0  0
   -1.8188    1.0625    3.7900 C   0  0  0  0  0
    0.0522   -0.4784    3.5508 C   0  0  0  0  0
   -4.8711   -1.8823   -1.0317 C   0  0  0  0  0
   -1.0645   -0.2321   -0.6687 C   0  0  0  0  0
   -3.3721   -1.4951   -3.3301 C   0  0  0  0  0
   -2.2168    0.7461    2.4922 C   0  0  0  0  0
   -0.3152   -0.8149    2.2393 C   0  0  0  0  0
    2.9902   -4.3809   -6.2598 C   0  0  0  0  0
    0.5754   -4.7285   -5.8555 C   0  0  0  0  0
   -5.4082   -2.2393   -2.2725 C   0  0  0  0  0
   -4.6465   -2.0479   -3.4219 C   0  0  0  0  0
    2.9883   -5.3516   -7.2617 C   0  0  0  0  0
    0.6113   -5.7031   -6.8633 C   0  0  0  0  0
    1.7935   -6.0137   -7.5508 C   0  0  0  0  0
   -0.7202   -0.3059   -3.0977 C   0  0  0  0  0
   -0.8730   -0.1688    6.5312 C   0  0  0  0  0
    1.5562   -0.5493   -4.0312 C   0  0  2  0  0
    1.8262   -3.0410   -4.5293 C   0  0  0  0  0
    1.5342   -1.6484   -5.1035 C   0  0  0  0  0
   -0.3691    0.2002    7.9160 C   0  0  0  0  0
    2.9473   -0.2659   -3.4756 C   0  0  0  0  0
    0.8947   -1.2194   -2.1485 H   0  0  0  0  0
   -2.3528    1.7551    4.3711 H   0  0  0  0  0
    0.9061   -0.9340    3.9580 H   0  0  0  0  0
   -5.4564   -2.0420   -0.1747 H   0  0  0  0  0
   -0.1084    0.1742   -0.5159 H   0  0  0  0  0
   -2.8105   -1.3539   -4.2060 H   0  0  0  0  0
   -3.0725    1.1881    2.0739 H   0  0  0  0  0
    0.2055   -1.4970    1.6342 H   0  0  0  0  0
    3.8752   -3.8743   -6.0095 H   0  0  0  0  0
   -0.2859   -4.4675   -5.3146 H   0  0  0  0  0
   -6.3746   -2.6461   -2.3288 H   0  0  0  0  0
   -5.0341   -2.3209   -4.3588 H   0  0  0  0  0
    3.8738   -5.5715   -7.7813 H   0  0  0  0  0
   -0.2633   -6.2235   -7.1218 H   0  0  0  0  0
    1.7711   -6.7565   -8.2926 H   0  0  0  0  0
   -1.9172   -0.0684    6.4864 H   0  0  0  0  0
   -0.6061   -1.1575    6.2995 H   0  0  0  0  0
    1.3689    0.3636   -4.5149 H   0  0  0  0  0
    1.0999   -3.2592   -3.8031 H   0  0  0  0  0
    2.7753   -3.0223   -4.0805 H   0  0  0  0  0
    2.2618   -1.4416   -5.8317 H   0  0  0  0  0
    0.5864   -1.6785   -5.5544 H   0  0  0  0  0
   -0.7491   -0.4803    8.6196 H   0  0  0  0  0
    0.6803    0.1659    7.9272 H   0  0  0  0  0
   -0.6902    1.1701    8.1584 H   0  0  0  0  0
    3.6716   -0.6003   -4.1582 H   0  0  0  0  0
    3.0598    0.7670   -3.3239 H   0  0  0  0  0
    3.0685   -0.7691   -2.5621 H   0  0  0  0  0
  1  5  1  0  0  0
  1 27  1  0  0  0
  2 26  2  0  0  0
  3  6  2  0  0  0
  3  7  1  0  0  0
  4 26  1  0  0  0
  4 28  1  0  0  0
  4 33  1  0  0  0
  5 12  2  0  0  0
  5 13  1  0  0  0
  6  8  1  0  0  0
  6 14  1  0  0  0
  7  9  1  0  0  0
  7 15  2  0  0  0
  8 10  2  0  0  0
  8 16  1  0  0  0
  9 17  2  0  0  0
  9 18  1  0  0  0
 10 15  1  0  0  0
 10 26  1  0  0  0
 11 19  2  0  0  0
 11 20  1  0  0  0
 11 29  1  0  0  0
 12 17  1  0  0  0
 12 34  1  0  0  0
 13 18  2  0  0  0
 13 35  1  0  0  0
 14 21  2  0  0  0
 14 36  1  0  0  0
 15 37  1  0  0  0
 16 22  2  0  0  0
 16 38  1  0  0  0
 17 39  1  0  0  0
 18 40  1  0  0  0
 19 23  1  0  0  0
 19 41  1  0  0  0
 20 24  2  0  0  0
 20 42  1  0  0  0
 21 22  1  0  0  0
 21 43  1  0  0  0
 22 44  1  0  0  0
 23 25  2  0  0  0
 23 45  1  0  0  0
 24 25  1  0  0  0
 24 46  1  0  0  0
 25 47  1  0  0  0
 27 31  1  0  0  0
 27 48  1  0  0  0
 27 49  1  0  0  0
 28 30  1  0  0  0
 28 32  1  0  0  0
 28 50  1  0  0  0
 29 30  1  0  0  0
 29 51  1  0  0  0
 29 52  1  0  0  0
 30 53  1  0  0  0
 30 54  1  0  0  0
 31 55  1  0  0  0
 31 56  1  0  0  0
 31 57  1  0  0  0
 32 58  1  0  0  0
 32 59  1  0  0  0
 32 60  1  0  0  0
M  END
> <QPhAR in domain>
True

> <s_m_source_file>
iis-002-500-000--002-999-999_filtered_optim.maegz

> <PRICERANGE_50MG>
100 - 250

> <r_epik_Charging_Adjusted_Penalty>
0.0

> <PRICERANGE_1MG>
50 - 100

> <Name>
MolPort-006-646-195

> <i_m_Source_File_Index>
44909

> <i_lp_mmshare_version>
36015

> <PUBCHEM_EXT_DATASOURCE_URL>
https://www.molport.com

> <s_lp_Force_Field>
OPLS3

> <r_epik_Ionization_Penalty>
1.12039E-5

> <r_epik_State_Penalty>
0.0

> <IS_SC>
Yes

> <r_epik_Ionization_Penalty_Neutral>
1.12039E-5

> <s_m_Source_Path>
/home/mrgulotta/data_server/CADD/LIBRERIE/OTTIMIZZATE/MOLPORT/ALL_STOCK_COMPOUNDS_FILTERED_NEW

> <i_m_source_file_index>
44909

> <PUBCHEM_EXT_SUBSTANCE_URL>
https://www.molport.com/shop/molecule-link/MolPort-006-646-195

> <VERIFIED_AMOUNT_MG>
100

> <r_epik_Ionization_Penalty_Charging>
0.0

> <r_lp_Energy>
50.3189

> <QC_METHOD>
NMR

> <QPhAR prediction>
6.760479236331053

> <i_epik_Tot_abs_Q>
0

> <i_epik_Tot_Q>
0

> <cdk:Title>
null

> <b_lp_Chiralities_Consistent>
1

> <s_m_entry_name>
iis-002-500-000--002-999-999_filtered.44909

> <i_f3d_flags>
0

> <PRICERANGE_5MG>
50 - 100

> <COMPOUND_STATE>
SOLID

> <s_m_entry_id>
157702

> <Molecule_Name>
MolPort-006-646-195

> <Score>
0.930645307849999

> <BEST_LEAD_TIME>
10

> <s_lp_Variant>
MolPort-006-646-195-1

> <s_m_Source_File>
iis-002-500-000--002-999-999_filtered.sdf

> <r_lp_tautomer_probability>
1.0

> <UNVERIFIED_AMOUNT_MG>
100.0

$$$$
MolPort-001-623-950
XX    ILIB07022204093D

 47 50  0  0  1  0              1 V2000
    1.0347    1.1880    4.7773 Cl  0  0  0  0  0
    0.0885    0.5012    2.0312 S   0  0  0  0  0
   -1.2153    0.3252   -4.0898 O   0  0  0  0  0
   -3.1299   -1.0151    0.3091 N   0  0  0  0  0
    0.5557   -0.6934   -3.0205 N   0  0  0  0  0
   -0.1680    0.5576    3.7246 C   0  0  0  0  0
   -1.4570   -0.1816    1.7368 C   0  0  0  0  0
   -3.6055   -1.3325   -0.9102 C   0  0  0  0  0
   -1.8940   -0.4762    0.4011 C   0  0  0  0  0
   -2.8564   -1.1133   -2.0850 C   0  0  0  0  0
   -1.5835   -0.5259   -1.9409 C   0  0  0  0  0
    1.8120   -4.1211   -5.2676 C   0  0  0  0  0
   -1.3906    0.0115    4.0645 C   0  0  0  0  0
   -2.1377   -0.3766    2.9189 C   0  0  0  0  0
   -4.8750   -1.8960   -1.0225 C   0  0  0  0  0
   -1.0806   -0.2173   -0.6809 C   0  0  0  0  0
   -3.4033   -1.4741   -3.3320 C   0  0  0  0  0
    2.9941   -4.4570   -5.9414 C   0  0  0  0  0
    0.6035   -4.8262   -5.4258 C   0  0  0  0  0
   -5.4219   -2.2461   -2.2607 C   0  0  0  0  0
   -4.6738   -2.0361   -3.4170 C   0  0  0  0  0
    2.9951   -5.5293   -6.8320 C   0  0  0  0  0
    0.6431   -5.9043   -6.3242 C   0  0  0  0  0
    1.8149   -6.2539   -7.0098 C   0  0  0  0  0
   -0.7598   -0.2649   -3.1133 C   0  0  0  0  0
    1.5088   -0.4802   -4.0723 C   0  0  0  0  0
    1.8350   -2.9697   -4.3301 C   0  0  0  0  0
    1.4839   -1.6626   -5.0410 C   0  0  0  0  0
    0.8728   -1.1744   -2.1909 H   0  0  0  0  0
   -1.6651   -0.0736    5.0744 H   0  0  0  0  0
   -3.1087   -0.7759    2.9059 H   0  0  0  0  0
   -5.4505   -2.0692   -0.1615 H   0  0  0  0  0
   -0.1264    0.1955   -0.5336 H   0  0  0  0  0
   -2.8513   -1.3199   -4.2118 H   0  0  0  0  0
    3.8698   -3.9025   -5.7736 H   0  0  0  0  0
   -0.2496   -4.5330   -4.8885 H   0  0  0  0  0
   -6.3849   -2.6616   -2.3107 H   0  0  0  0  0
   -5.0687   -2.3020   -4.3529 H   0  0  0  0  0
    3.8720   -5.7780   -7.3533 H   0  0  0  0  0
   -0.2211   -6.4746   -6.4983 H   0  0  0  0  0
    1.7961   -7.0742   -7.6649 H   0  0  0  0  0
    1.2659    0.3994   -4.5917 H   0  0  0  0  0
    2.4703   -0.3891   -3.6602 H   0  0  0  0  0
    1.1362   -3.1291   -3.5628 H   0  0  0  0  0
    2.7949   -2.8753   -3.9152 H   0  0  0  0  0
    0.5237   -1.7552   -5.4557 H   0  0  0  0  0
    2.1824   -1.5013   -5.8082 H   0  0  0  0  0
  1  6  1  0  0  0
  2  6  1  0  0  0
  2  7  1  0  0  0
  3 25  2  0  0  0
  4  8  2  0  0  0
  4  9  1  0  0  0
  5 25  1  0  0  0
  5 26  1  0  0  0
  5 29  1  0  0  0
  6 13  2  0  0  0
  7  9  1  0  0  0
  7 14  2  0  0  0
  8 10  1  0  0  0
  8 15  1  0  0  0
  9 16  2  0  0  0
 10 11  2  0  0  0
 10 17  1  0  0  0
 11 16  1  0  0  0
 11 25  1  0  0  0
 12 18  2  0  0  0
 12 19  1  0  0  0
 12 27  1  0  0  0
 13 14  1  0  0  0
 13 30  1  0  0  0
 14 31  1  0  0  0
 15 20  2  0  0  0
 15 32  1  0  0  0
 16 33  1  0  0  0
 17 21  2  0  0  0
 17 34  1  0  0  0
 18 22  1  0  0  0
 18 35  1  0  0  0
 19 23  2  0  0  0
 19 36  1  0  0  0
 20 21  1  0  0  0
 20 37  1  0  0  0
 21 38  1  0  0  0
 22 24  2  0  0  0
 22 39  1  0  0  0
 23 24  1  0  0  0
 23 40  1  0  0  0
 24 41  1  0  0  0
 26 28  1  0  0  0
 26 42  1  0  0  0
 26 43  1  0  0  0
 27 28  1  0  0  0
 27 44  1  0  0  0
 27 45  1  0  0  0
 28 46  1  0  0  0
 28 47  1  0  0  0
M  END
> <QPhAR in domain>
True

> <s_m_source_file>
iis-000-500-000--000-999-999_filtered_optim.maegz

> <PRICERANGE_50MG>
50 - 100

> <r_epik_Charging_Adjusted_Penalty>
0.0

> <PRICERANGE_1MG>
< 50

> <Name>
MolPort-001-623-950

> <i_m_Source_File_Index>
8254

> <i_lp_mmshare_version>
36015

> <PUBCHEM_EXT_DATASOURCE_URL>
https://www.molport.com

> <s_lp_Force_Field>
OPLS3

> <r_epik_Ionization_Penalty>
1.33907E-5

> <r_epik_State_Penalty>
0.0

> <IS_SC>
Yes

> <r_epik_Ionization_Penalty_Neutral>
1.33907E-5

> <s_m_Source_Path>
/home/mrgulotta/data_server/CADD/LIBRERIE/OTTIMIZZATE/MOLPORT/ALL_STOCK_COMPOUNDS_FILTERED_NEW

> <i_m_source_file_index>
8254

> <PUBCHEM_EXT_SUBSTANCE_URL>
https://www.molport.com/shop/molecule-link/MolPort-001-623-950

> <VERIFIED_AMOUNT_MG>
50.0

> <r_epik_Ionization_Penalty_Charging>
0.0

> <r_lp_Energy>
39.7111

> <QC_METHOD>
LCMS; NMR

> <QPhAR prediction>
6.760479236331053

> <i_epik_Tot_abs_Q>
0

> <i_epik_Tot_Q>
0

> <cdk:Title>
null

> <b_lp_Chiralities_Consistent>
1

> <s_m_entry_name>
iis-000-500-000--000-999-999_filtered.8254

> <i_f3d_flags>
0

> <PRICERANGE_5MG>
< 50

> <COMPOUND_STATE>
SOLID; N/A

> <s_m_entry_id>
48205

> <Molecule_Name>
MolPort-001-623-950

> <Score>
0.931284272569655

> <BEST_LEAD_TIME>
10

> <s_lp_Variant>
MolPort-001-623-950-1

> <s_m_Source_File>
iis-000-500-000--000-999-999_filtered.sdf

> <r_lp_tautomer_probability>
1.0

> <UNVERIFIED_AMOUNT_MG>
100.0

$$$$
MolPort-001-489-526
XX    ILIB07022204093D

 50 53  0  0  1  0              1 V2000
    0.0885    0.5012    2.0312 S   0  0  0  0  0
   -1.2153    0.3252   -4.0898 O   0  0  0  0  0
   -3.1299   -1.0151    0.3091 N   0  0  0  0  0
    0.5557   -0.6934   -3.0205 N   0  0  0  0  0
   -1.4570   -0.1816    1.7368 C   0  0  0  0  0
   -0.1680    0.5576    3.7246 C   0  0  0  0  0
   -3.6055   -1.3325   -0.9102 C   0  0  0  0  0
   -1.8940   -0.4762    0.4011 C   0  0  0  0  0
   -2.8564   -1.1133   -2.0850 C   0  0  0  0  0
   -1.5835   -0.5259   -1.9409 C   0  0  0  0  0
    1.8120   -4.1211   -5.2676 C   0  0  0  0  0
   -2.1377   -0.3766    2.9189 C   0  0  0  0  0
   -1.3906    0.0115    4.0645 C   0  0  0  0  0
   -4.8750   -1.8960   -1.0225 C   0  0  0  0  0
   -1.0806   -0.2173   -0.6809 C   0  0  0  0  0
   -3.4033   -1.4741   -3.3320 C   0  0  0  0  0
    2.9941   -4.4570   -5.9414 C   0  0  0  0  0
    0.6035   -4.8262   -5.4258 C   0  0  0  0  0
   -5.4219   -2.2461   -2.2607 C   0  0  0  0  0
   -4.6738   -2.0361   -3.4170 C   0  0  0  0  0
    2.9951   -5.5293   -6.8320 C   0  0  0  0  0
    0.6431   -5.9043   -6.3242 C   0  0  0  0  0
    1.8149   -6.2539   -7.0098 C   0  0  0  0  0
   -0.7598   -0.2649   -3.1133 C   0  0  0  0  0
    1.5088   -0.4802   -4.0723 C   0  0  0  0  0
    1.8350   -2.9697   -4.3301 C   0  0  0  0  0
    0.8616    1.0977    4.6250 C   0  0  0  0  0
    1.4839   -1.6626   -5.0410 C   0  0  0  0  0
    0.8728   -1.1744   -2.1909 H   0  0  0  0  0
   -3.1087   -0.7759    2.9059 H   0  0  0  0  0
   -1.6651   -0.0736    5.0744 H   0  0  0  0  0
   -5.4505   -2.0692   -0.1615 H   0  0  0  0  0
   -0.1264    0.1955   -0.5336 H   0  0  0  0  0
   -2.8513   -1.3199   -4.2118 H   0  0  0  0  0
    3.8698   -3.9025   -5.7736 H   0  0  0  0  0
   -0.2496   -4.5330   -4.8885 H   0  0  0  0  0
   -6.3849   -2.6616   -2.3107 H   0  0  0  0  0
   -5.0687   -2.3020   -4.3529 H   0  0  0  0  0
    3.8720   -5.7780   -7.3533 H   0  0  0  0  0
   -0.2211   -6.4746   -6.4983 H   0  0  0  0  0
    1.7961   -7.0742   -7.6649 H   0  0  0  0  0
    1.2659    0.3994   -4.5917 H   0  0  0  0  0
    2.4703   -0.3891   -3.6602 H   0  0  0  0  0
    1.1362   -3.1291   -3.5628 H   0  0  0  0  0
    2.7949   -2.8753   -3.9152 H   0  0  0  0  0
    0.6737    2.1157    4.8009 H   0  0  0  0  0
    1.8070    0.9879    4.1815 H   0  0  0  0  0
    0.8393    0.5752    5.5355 H   0  0  0  0  0
    0.5237   -1.7552   -5.4557 H   0  0  0  0  0
    2.1824   -1.5013   -5.8082 H   0  0  0  0  0
  1  5  1  0  0  0
  1  6  1  0  0  0
  2 24  2  0  0  0
  3  7  2  0  0  0
  3  8  1  0  0  0
  4 24  1  0  0  0
  4 25  1  0  0  0
  4 29  1  0  0  0
  5  8  1  0  0  0
  5 12  2  0  0  0
  6 13  2  0  0  0
  6 27  1  0  0  0
  7  9  1  0  0  0
  7 14  1  0  0  0
  8 15  2  0  0  0
  9 10  2  0  0  0
  9 16  1  0  0  0
 10 15  1  0  0  0
 10 24  1  0  0  0
 11 17  2  0  0  0
 11 18  1  0  0  0
 11 26  1  0  0  0
 12 13  1  0  0  0
 12 30  1  0  0  0
 13 31  1  0  0  0
 14 19  2  0  0  0
 14 32  1  0  0  0
 15 33  1  0  0  0
 16 20  2  0  0  0
 16 34  1  0  0  0
 17 21  1  0  0  0
 17 35  1  0  0  0
 18 22  2  0  0  0
 18 36  1  0  0  0
 19 20  1  0  0  0
 19 37  1  0  0  0
 20 38  1  0  0  0
 21 23  2  0  0  0
 21 39  1  0  0  0
 22 23  1  0  0  0
 22 40  1  0  0  0
 23 41  1  0  0  0
 25 28  1  0  0  0
 25 42  1  0  0  0
 25 43  1  0  0  0
 26 28  1  0  0  0
 26 44  1  0  0  0
 26 45  1  0  0  0
 27 46  1  0  0  0
 27 47  1  0  0  0
 27 48  1  0  0  0
 28 49  1  0  0  0
 28 50  1  0  0  0
M  END
> <QPhAR in domain>
True

> <s_m_source_file>
iis-000-000-000--000-499-999_filtered_optim.maegz

> <PRICERANGE_50MG>
50 - 100

> <r_epik_Charging_Adjusted_Penalty>
0.0

> <PRICERANGE_1MG>
< 50

> <Name>
MolPort-001-489-526

> <i_m_Source_File_Index>
39351

> <i_lp_mmshare_version>
36015

> <PUBCHEM_EXT_DATASOURCE_URL>
https://www.molport.com

> <s_lp_Force_Field>
OPLS3

> <r_epik_Ionization_Penalty>
1.33907E-5

> <r_epik_State_Penalty>
0.0

> <IS_SC>
Yes

> <r_epik_Ionization_Penalty_Neutral>
1.33907E-5

> <s_m_Source_Path>
/home/mrgulotta/data_server/CADD/LIBRERIE/OTTIMIZZATE/MOLPORT/ALL_STOCK_COMPOUNDS_FILTERED_NEW

> <i_m_source_file_index>
39351

> <PUBCHEM_EXT_SUBSTANCE_URL>
https://www.molport.com/shop/molecule-link/MolPort-001-489-526

> <VERIFIED_AMOUNT_MG>
50.0

> <r_epik_Ionization_Penalty_Charging>
0.0

> <r_lp_Energy>
43.4088

> <QC_METHOD>
LCMS; NMR

> <QPhAR prediction>
6.760479236331053

> <i_epik_Tot_abs_Q>
0

> <i_epik_Tot_Q>
0

> <cdk:Title>
null

> <b_lp_Chiralities_Consistent>
1

> <s_m_entry_name>
iis-000-000-000--000-499-999_filtered.39351

> <i_f3d_flags>
0

> <PRICERANGE_5MG>
< 50

> <COMPOUND_STATE>
SOLID; N/A

> <s_m_entry_id>
39351

> <Molecule_Name>
MolPort-001-489-526

> <Score>
0.931284272569655

> <BEST_LEAD_TIME>
10

> <s_lp_Variant>
MolPort-001-489-526-1

> <s_m_Source_File>
iis-000-000-000--000-499-999_filtered.sdf

> <r_lp_tautomer_probability>
1.0

> <UNVERIFIED_AMOUNT_MG>
100.0

$$$$
MolPort-000-723-222
XX    ILIB07022204093D

 59 63  0  0  1  0              1 V2000
   -1.5244    0.9165    7.6777 O   0  0  0  0  0
    3.2471   -1.4468   -6.6504 O   0  0  0  0  0
   -1.0190   -0.7815    0.4510 N   0  0  0  0  0
   -0.3058   -1.0068   -0.6841 N   0  0  0  0  0
   -3.0029   -0.5945    1.6836 N   0  0  0  0  0
    0.4718    0.1552    6.9375 N   0  0  0  0  0
    2.0918   -3.3613   -7.0566 N   0  0  0  0  0
   -2.3730   -0.8401    0.4603 C   0  0  0  0  0
   -0.9492   -1.2803   -1.8340 C   0  0  0  0  0
   -2.4697   -0.3408    2.9502 C   0  0  0  0  0
   -3.0820   -1.0806   -0.7432 C   0  0  0  0  0
   -2.3457   -1.3257   -1.9258 C   0  0  0  0  0
   -0.1054   -1.5137   -2.9717 C   0  0  0  0  0
   -1.3921    0.1910    5.4277 C   0  0  0  0  0
    1.4873   -1.9971   -5.1660 C   0  0  0  0  0
   -1.4087    0.5686    3.0576 C   0  0  0  0  0
   -3.0322   -1.0083    4.0547 C   0  0  0  0  0
   -4.4961   -1.0591   -0.8381 C   0  0  0  0  0
   -3.0439   -1.6016   -3.1270 C   0  0  0  0  0
   -0.3313   -2.6602   -3.7451 C   0  0  0  0  0
    0.9026   -0.5728   -3.2568 C   0  0  0  0  0
   -0.8557    0.8320    4.3086 C   0  0  0  0  0
   -2.4561   -0.7139    5.3008 C   0  0  0  0  0
    0.4802   -2.9121   -4.8496 C   0  0  0  0  0
    1.6948   -0.8540   -4.3789 C   0  0  0  0  0
   -5.1621   -1.3188   -2.0352 C   0  0  0  0  0
   -4.4355   -1.6006   -3.1787 C   0  0  0  0  0
   -0.8516    0.4541    6.7559 C   0  0  0  0  0
    2.3438   -2.2178   -6.3242 C   0  0  0  0  0
    1.0967    0.3865    8.2383 C   0  0  0  0  0
    1.3682   -0.4102    5.9199 C   0  0  0  0  0
    2.3057    1.3076    8.0898 C   0  0  0  0  0
    2.5811    0.4923    5.7188 C   0  0  0  0  0
    3.2861    0.7776    7.0449 C   0  0  0  0  0
   -4.0113   -0.5829    1.7390 H   0  0  0  0  0
    1.3492   -3.9864   -6.7775 H   0  0  0  0  0
    2.6501   -3.5725   -7.8713 H   0  0  0  0  0
   -1.0368    1.0452    2.1991 H   0  0  0  0  0
   -3.8304   -1.6758    3.9139 H   0  0  0  0  0
   -5.0760   -0.8426    0.0101 H   0  0  0  0  0
   -2.5115   -1.8136   -4.0069 H   0  0  0  0  0
   -1.1067   -3.3208   -3.4905 H   0  0  0  0  0
    1.0209    0.2718   -2.6443 H   0  0  0  0  0
   -0.0512    1.4975    4.4201 H   0  0  0  0  0
   -2.8430   -1.1920    6.1518 H   0  0  0  0  0
    0.3461   -3.7701   -5.4398 H   0  0  0  0  0
    2.4615   -0.1798   -4.6241 H   0  0  0  0  0
   -6.2115   -1.3001   -2.0669 H   0  0  0  0  0
   -4.9275   -1.8129   -4.0817 H   0  0  0  0  0
    1.4117   -0.5297    8.6431 H   0  0  0  0  0
    0.4020    0.8347    8.8856 H   0  0  0  0  0
    1.6954   -1.3586    6.2298 H   0  0  0  0  0
    0.8528   -0.4980    5.0093 H   0  0  0  0  0
    1.9843    2.2615    7.7911 H   0  0  0  0  0
    2.8063    1.3791    9.0100 H   0  0  0  0  0
    3.2626    0.0237    5.0720 H   0  0  0  0  0
    2.2728    1.4049    5.3010 H   0  0  0  0  0
    4.0384    1.4907    6.8773 H   0  0  0  0  0
    3.7196   -0.1135    7.3919 H   0  0  0  0  0
  1 28  2  0  0  0
  2 29  2  0  0  0
  3  4  2  0  0  0
  3  8  1  0  0  0
  4  9  1  0  0  0
  5  8  1  0  0  0
  5 10  1  0  0  0
  5 35  1  0  0  0
  6 28  1  0  0  0
  6 30  1  0  0  0
  6 31  1  0  0  0
  7 29  1  0  0  0
  7 36  1  0  0  0
  7 37  1  0  0  0
  8 11  2  0  0  0
  9 12  2  0  0  0
  9 13  1  0  0  0
 10 16  2  0  0  0
 10 17  1  0  0  0
 11 12  1  0  0  0
 11 18  1  0  0  0
 12 19  1  0  0  0
 13 20  2  0  0  0
 13 21  1  0  0  0
 14 22  2  0  0  0
 14 23  1  0  0  0
 14 28  1  0  0  0
 15 24  2  0  0  0
 15 25  1  0  0  0
 15 29  1  0  0  0
 16 22  1  0  0  0
 16 38  1  0  0  0
 17 23  2  0  0  0
 17 39  1  0  0  0
 18 26  2  0  0  0
 18 40  1  0  0  0
 19 27  2  0  0  0
 19 41  1  0  0  0
 20 24  1  0  0  0
 20 42  1  0  0  0
 21 25  2  0  0  0
 21 43  1  0  0  0
 22 44  1  0  0  0
 23 45  1  0  0  0
 24 46  1  0  0  0
 25 47  1  0  0  0
 26 27  1  0  0  0
 26 48  1  0  0  0
 27 49  1  0  0  0
 30 32  1  0  0  0
 30 50  1  0  0  0
 30 51  1  0  0  0
 31 33  1  0  0  0
 31 52  1  0  0  0
 31 53  1  0  0  0
 32 34  1  0  0  0
 32 54  1  0  0  0
 32 55  1  0  0  0
 33 34  1  0  0  0
 33 56  1  0  0  0
 33 57  1  0  0  0
 34 58  1  0  0  0
 34 59  1  0  0  0
M  END
> <QPhAR in domain>
True

> <s_m_source_file>
iis-000-000-000--000-499-999_filtered_optim.maegz

> <PRICERANGE_50MG>
50 - 100

> <r_epik_Charging_Adjusted_Penalty>
0.0

> <PRICERANGE_1MG>
< 50

> <Name>
MolPort-000-723-222

> <i_m_Source_File_Index>
23393

> <i_lp_mmshare_version>
36015

> <PUBCHEM_EXT_DATASOURCE_URL>
https://www.molport.com

> <s_lp_Force_Field>
OPLS3

> <r_epik_Ionization_Penalty>
0.00906239

> <r_epik_State_Penalty>
0.0

> <IS_SC>
Yes

> <r_epik_Ionization_Penalty_Neutral>
0.00906239

> <s_m_Source_Path>
/home/mrgulotta/data_server/CADD/LIBRERIE/OTTIMIZZATE/MOLPORT/ALL_STOCK_COMPOUNDS_FILTERED_NEW

> <i_m_source_file_index>
23393

> <PUBCHEM_EXT_SUBSTANCE_URL>
https://www.molport.com/shop/molecule-link/MolPort-000-723-222

> <VERIFIED_AMOUNT_MG>
50.0

> <r_epik_Ionization_Penalty_Charging>
0.0

> <r_lp_Energy>
67.8555

> <QC_METHOD>
NMR

> <QPhAR prediction>
6.76002415157795

> <i_epik_Tot_abs_Q>
0

> <i_epik_Tot_Q>
0

> <cdk:Title>
null

> <b_lp_Chiralities_Consistent>
1

> <s_m_entry_name>
iis-000-000-000--000-499-999_filtered.23393

> <i_f3d_flags>
0

> <PRICERANGE_5MG>
< 50

> <COMPOUND_STATE>
N/A

> <s_m_entry_id>
23393

> <Molecule_Name>
MolPort-000-723-222

> <Score>
0.9337104422772482

> <BEST_LEAD_TIME>
10

> <s_lp_Variant>
MolPort-000-723-222-1

> <s_m_Source_File>
iis-000-000-000--000-499-999_filtered.sdf

> <r_lp_tautomer_probability>
1.0

> <UNVERIFIED_AMOUNT_MG>
100.0

$$$$
MolPort-007-712-409
XX    ILIB07022204093D

 59 63  0  0  1  0              1 V2000
   -2.7148   -2.0029   -4.1758 O   0  0  0  0  0
   -0.4275    1.7778    4.8496 O   0  0  0  0  0
   -3.9326   -1.6621   -3.6152 N   0  0  0  0  0
   -2.5771   -0.9153    2.4688 N   0  0  0  0  0
   -1.9976   -0.3821    1.3823 N   0  0  0  0  0
   -1.9170   -0.4677    3.5303 N   0  0  0  0  0
    1.3188    0.6558    3.8447 N   0  0  0  0  0
   -1.7041   -1.8403   -3.2695 C   0  0  0  0  0
   -3.6836   -1.2939   -2.3486 C   0  0  0  0  0
   -0.9478    0.4274    1.7148 C   0  0  0  0  0
   -0.9172    0.3530    3.0879 C   0  0  0  0  0
   -2.5000   -0.6924    0.1266 C   0  0  0  0  0
   -2.2695   -1.4019   -2.0996 C   0  0  0  0  0
   -0.3807   -2.1611   -3.7246 C   0  0  0  0  0
    4.0059    3.0557    5.0020 C   0  0  0  0  0
   -4.5605   -0.8657   -1.3403 C   0  0  0  0  0
   -1.6172   -1.1309   -0.8975 C   0  0  0  0  0
   -3.9180   -0.5745   -0.1143 C   0  0  0  0  0
   -0.2195   -2.6113   -5.0410 C   0  0  0  0  0
    0.6897   -2.0000   -2.8232 C   0  0  0  0  0
    5.3320    2.6611    4.7715 C   0  0  0  0  0
    3.6338    3.9727    6.0039 C   0  0  0  0  0
    1.0552   -2.9355   -5.5039 C   0  0  0  0  0
    1.9585   -2.3291   -3.3242 C   0  0  0  0  0
    6.3496    3.1797    5.5723 C   0  0  0  0  0
    4.6836    4.4785    6.7852 C   0  0  0  0  0
    2.1416   -2.7832   -4.6387 C   0  0  0  0  0
    6.0156    4.0957    6.5723 C   0  0  0  0  0
   -0.0164    1.0005    3.9912 C   0  0  0  0  0
    2.3467    1.1860    4.6953 C   0  0  0  0  0
   -0.1385    1.1396    0.7141 C   0  0  0  0  0
    2.9395    2.4824    4.1406 C   0  0  0  0  0
   -0.7153    2.5303    0.4122 C   0  0  0  0  0
    0.0795    3.3525   -0.6362 C   0  0  0  0  0
    1.5971    0.0103    3.1195 H   0  0  0  0  0
   -5.5890   -0.7882   -1.5371 H   0  0  0  0  0
   -0.5894   -1.2199   -0.7021 H   0  0  0  0  0
   -4.5560   -0.2509    0.6543 H   0  0  0  0  0
   -1.0548   -2.7024   -5.6707 H   0  0  0  0  0
    0.5079   -1.6537   -1.8488 H   0  0  0  0  0
    5.5512    1.9813    4.0019 H   0  0  0  0  0
    2.6246    4.2355    6.1265 H   0  0  0  0  0
    1.1839   -3.2862   -6.4852 H   0  0  0  0  0
    2.8052   -2.2382   -2.7100 H   0  0  0  0  0
    7.3439    2.8801    5.4173 H   0  0  0  0  0
    4.4823    5.1638    7.5548 H   0  0  0  0  0
    3.1120   -3.0098   -4.9695 H   0  0  0  0  0
    6.7671    4.5087    7.1782 H   0  0  0  0  0
    3.1223    0.4841    4.7863 H   0  0  0  0  0
    1.9455    1.3893    5.6441 H   0  0  0  0  0
    0.8406    1.2566    1.0748 H   0  0  0  0  0
   -0.1190    0.5866   -0.1782 H   0  0  0  0  0
    3.3335    2.2694    3.1909 H   0  0  0  0  0
    2.1554    3.1744    4.0471 H   0  0  0  0  0
   -0.7326    3.1009    1.2935 H   0  0  0  0  0
   -1.6922    2.4309    0.0404 H   0  0  0  0  0
   -0.3566    4.3020   -0.7402 H   0  0  0  0  0
    1.0745    3.4574   -0.3176 H   0  0  0  0  0
    0.0586    2.8546   -1.5604 H   0  0  0  0  0
  1  3  1  0  0  0
  1  8  1  0  0  0
  2 29  2  0  0  0
  3  9  2  0  0  0
  4  5  1  0  0  0
  4  6  2  0  0  0
  5 10  1  0  0  0
  5 12  1  0  0  0
  6 11  1  0  0  0
  7 29  1  0  0  0
  7 30  1  0  0  0
  7 35  1  0  0  0
  8 13  2  0  0  0
  8 14  1  0  0  0
  9 13  1  0  0  0
  9 16  1  0  0  0
 10 11  2  0  0  0
 10 31  1  0  0  0
 11 29  1  0  0  0
 12 17  2  0  0  0
 12 18  1  0  0  0
 13 17  1  0  0  0
 14 19  2  0  0  0
 14 20  1  0  0  0
 15 21  2  0  0  0
 15 22  1  0  0  0
 15 32  1  0  0  0
 16 18  2  0  0  0
 16 36  1  0  0  0
 17 37  1  0  0  0
 18 38  1  0  0  0
 19 23  1  0  0  0
 19 39  1  0  0  0
 20 24  2  0  0  0
 20 40  1  0  0  0
 21 25  1  0  0  0
 21 41  1  0  0  0
 22 26  2  0  0  0
 22 42  1  0  0  0
 23 27  2  0  0  0
 23 43  1  0  0  0
 24 27  1  0  0  0
 24 44  1  0  0  0
 25 28  2  0  0  0
 25 45  1  0  0  0
 26 28  1  0  0  0
 26 46  1  0  0  0
 27 47  1  0  0  0
 28 48  1  0  0  0
 30 32  1  0  0  0
 30 49  1  0  0  0
 30 50  1  0  0  0
 31 33  1  0  0  0
 31 51  1  0  0  0
 31 52  1  0  0  0
 32 53  1  0  0  0
 32 54  1  0  0  0
 33 34  1  0  0  0
 33 55  1  0  0  0
 33 56  1  0  0  0
 34 57  1  0  0  0
 34 58  1  0  0  0
 34 59  1  0  0  0
M  END
> <QPhAR in domain>
True

> <s_m_source_file>
iis-003-000-000--003-499-999_filtered_optim.maegz

> <PRICERANGE_50MG>
100 - 250

> <r_epik_Charging_Adjusted_Penalty>
0.0

> <PRICERANGE_1MG>
< 50

> <Name>
MolPort-007-712-409

> <i_m_Source_File_Index>
21112

> <i_lp_mmshare_version>
36015

> <PUBCHEM_EXT_DATASOURCE_URL>
https://www.molport.com

> <s_lp_Force_Field>
OPLS3

> <r_epik_Ionization_Penalty>
1.78739E-6

> <r_epik_State_Penalty>
0.0

> <IS_SC>
Yes

> <r_epik_Ionization_Penalty_Neutral>
1.78739E-6

> <s_m_Source_Path>
/home/mrgulotta/data_server/CADD/LIBRERIE/OTTIMIZZATE/MOLPORT/ALL_STOCK_COMPOUNDS_FILTERED_NEW

> <i_m_source_file_index>
21112

> <PUBCHEM_EXT_SUBSTANCE_URL>
https://www.molport.com/shop/molecule-link/MolPort-007-712-409

> <VERIFIED_AMOUNT_MG>
100

> <r_epik_Ionization_Penalty_Charging>
0.0

> <r_lp_Energy>
37.4313

> <QC_METHOD>
NMR

> <QPhAR prediction>
6.76002415157795

> <i_epik_Tot_abs_Q>
0

> <i_epik_Tot_Q>
0

> <cdk:Title>
null

> <b_lp_Chiralities_Consistent>
1

> <s_m_entry_name>
iis-003-000-000--003-499-999_filtered.21112

> <i_f3d_flags>
0

> <PRICERANGE_5MG>
< 50

> <COMPOUND_STATE>
SOLID; N/A

> <s_m_entry_id>
179541

> <Molecule_Name>
MolPort-007-712-409

> <Score>
0.9320307641559754

> <BEST_LEAD_TIME>
10

> <s_lp_Variant>
MolPort-007-712-409-1

> <s_m_Source_File>
iis-003-000-000--003-499-999_filtered.sdf

> <r_lp_tautomer_probability>
1.0

> <UNVERIFIED_AMOUNT_MG>
100

$$$$
MolPort-000-729-703
XX    ILIB07022204093D

 54 57  0  0  1  0              1 V2000
   -3.1416   -1.5244    6.7051 Cl  0  0  0  0  0
   -0.7405    0.4778    7.0020 Cl  0  0  0  0  0
    3.0547   -3.2373   -6.3516 O   0  0  0  0  0
   -1.0122   -0.7742    0.4430 N   0  0  0  0  0
   -0.3032   -1.0063   -0.6936 N   0  0  0  0  0
   -2.9912   -0.5784    1.6816 N   0  0  0  0  0
    2.4072   -1.2583   -7.3457 N   0  0  0  0  0
   -2.4873   -0.7336    5.3223 C   0  0  0  0  0
   -1.4204    0.1578    5.4531 C   0  0  0  0  0
   -2.3662   -0.8311    0.4572 C   0  0  0  0  0
   -0.9512   -1.2842   -1.8398 C   0  0  0  0  0
   -2.4531   -0.3197    2.9453 C   0  0  0  0  0
   -3.0801   -1.0762   -0.7427 C   0  0  0  0  0
   -2.3477   -1.3276   -1.9268 C   0  0  0  0  0
   -0.1114   -1.5239   -2.9795 C   0  0  0  0  0
    1.5244   -1.9487   -5.1543 C   0  0  0  0  0
   -3.0029   -0.9814    4.0508 C   0  0  0  0  0
   -0.8833    0.8076    4.3320 C   0  0  0  0  0
   -1.3813    0.5879    3.0391 C   0  0  0  0  0
   -4.4941   -1.0527   -0.8330 C   0  0  0  0  0
   -3.0508   -1.6089   -3.1240 C   0  0  0  0  0
    0.8984   -0.5969   -3.2705 C   0  0  0  0  0
   -0.3414   -2.6846   -3.7432 C   0  0  0  0  0
    1.7212   -0.8049   -4.3770 C   0  0  0  0  0
    0.5095   -2.8652   -4.8438 C   0  0  0  0  0
   -5.1660   -1.3174   -2.0264 C   0  0  0  0  0
   -4.4434   -1.6055   -3.1719 C   0  0  0  0  0
    2.3760   -2.2080   -6.3066 C   0  0  0  0  0
    1.5981   -0.0739   -7.4062 C   0  0  0  0  0
    3.2471   -1.4893   -8.4883 C   0  0  0  0  0
    0.2778   -0.3274   -8.1172 C   0  0  0  0  0
    4.6387   -0.9082   -8.2891 C   0  0  0  0  0
   -3.9994   -0.5645    1.7406 H   0  0  0  0  0
   -3.7960   -1.6586    3.9287 H   0  0  0  0  0
   -0.0856    1.4805    4.4473 H   0  0  0  0  0
   -1.0073    1.0499    2.1735 H   0  0  0  0  0
   -5.0708   -0.8307    0.0159 H   0  0  0  0  0
   -2.5220   -1.8270   -4.0045 H   0  0  0  0  0
    1.0303    0.2454   -2.6576 H   0  0  0  0  0
   -1.1101   -3.3469   -3.4732 H   0  0  0  0  0
    2.4772   -0.1217   -4.6303 H   0  0  0  0  0
    0.3695   -3.7163   -5.4426 H   0  0  0  0  0
   -6.2155   -1.2977   -2.0535 H   0  0  0  0  0
   -4.9383   -1.8205   -4.0727 H   0  0  0  0  0
    1.3894    0.2576   -6.4320 H   0  0  0  0  0
    2.1147    0.6766   -7.9281 H   0  0  0  0  0
    2.8186   -1.0389   -9.3345 H   0  0  0  0  0
    3.3402   -2.5224   -8.6511 H   0  0  0  0  0
   -0.4336    0.3744   -7.7950 H   0  0  0  0  0
    0.4154   -0.2355   -9.1541 H   0  0  0  0  0
   -0.0599   -1.2961   -7.8934 H   0  0  0  0  0
    5.0446   -1.2717   -7.3915 H   0  0  0  0  0
    4.5779    0.1392   -8.2469 H   0  0  0  0  0
    5.2542   -1.1910   -9.0914 H   0  0  0  0  0
  1  8  1  0  0  0
  2  9  1  0  0  0
  3 28  2  0  0  0
  4  5  2  0  0  0
  4 10  1  0  0  0
  5 11  1  0  0  0
  6 10  1  0  0  0
  6 12  1  0  0  0
  6 33  1  0  0  0
  7 28  1  0  0  0
  7 29  1  0  0  0
  7 30  1  0  0  0
  8  9  2  0  0  0
  8 17  1  0  0  0
  9 18  1  0  0  0
 10 13  2  0  0  0
 11 14  2  0  0  0
 11 15  1  0  0  0
 12 17  2  0  0  0
 12 19  1  0  0  0
 13 14  1  0  0  0
 13 20  1  0  0  0
 14 21  1  0  0  0
 15 22  2  0  0  0
 15 23  1  0  0  0
 16 24  2  0  0  0
 16 25  1  0  0  0
 16 28  1  0  0  0
 17 34  1  0  0  0
 18 19  2  0  0  0
 18 35  1  0  0  0
 19 36  1  0  0  0
 20 26  2  0  0  0
 20 37  1  0  0  0
 21 27  2  0  0  0
 21 38  1  0  0  0
 22 24  1  0  0  0
 22 39  1  0  0  0
 23 25  2  0  0  0
 23 40  1  0  0  0
 24 41  1  0  0  0
 25 42  1  0  0  0
 26 27  1  0  0  0
 26 43  1  0  0  0
 27 44  1  0  0  0
 29 31  1  0  0  0
 29 45  1  0  0  0
 29 46  1  0  0  0
 30 32  1  0  0  0
 30 47  1  0  0  0
 30 48  1  0  0  0
 31 49  1  0  0  0
 31 50  1  0  0  0
 31 51  1  0  0  0
 32 52  1  0  0  0
 32 53  1  0  0  0
 32 54  1  0  0  0
M  END
> <QPhAR in domain>
True

> <s_m_source_file>
iis-000-000-000--000-499-999_filtered_optim.maegz

> <PRICERANGE_50MG>
50 - 100

> <r_epik_Charging_Adjusted_Penalty>
0.0

> <PRICERANGE_1MG>
< 50

> <Name>
MolPort-000-729-703

> <i_m_Source_File_Index>
23964

> <i_lp_mmshare_version>
36015

> <PUBCHEM_EXT_DATASOURCE_URL>
https://www.molport.com

> <s_lp_Force_Field>
OPLS3

> <r_epik_Ionization_Penalty>
0.00944869

> <r_epik_State_Penalty>
0.0

> <IS_SC>
Yes

> <r_epik_Ionization_Penalty_Neutral>
0.00944869

> <s_m_Source_Path>
/home/mrgulotta/data_server/CADD/LIBRERIE/OTTIMIZZATE/MOLPORT/ALL_STOCK_COMPOUNDS_FILTERED_NEW

> <i_m_source_file_index>
23964

> <PUBCHEM_EXT_SUBSTANCE_URL>
https://www.molport.com/shop/molecule-link/MolPort-000-729-703

> <VERIFIED_AMOUNT_MG>
50.0

> <r_epik_Ionization_Penalty_Charging>
0.0

> <r_lp_Energy>
63.7303

> <QC_METHOD>
NMR

> <QPhAR prediction>
6.76002415157795

> <i_epik_Tot_abs_Q>
0

> <i_epik_Tot_Q>
0

> <cdk:Title>
null

> <b_lp_Chiralities_Consistent>
1

> <s_m_entry_name>
iis-000-000-000--000-499-999_filtered.23964

> <i_f3d_flags>
0

> <PRICERANGE_5MG>
< 50

> <COMPOUND_STATE>
N/A

> <s_m_entry_id>
23964

> <Molecule_Name>
MolPort-000-729-703

> <Score>
0.9336075434738061

> <BEST_LEAD_TIME>
10

> <s_lp_Variant>
MolPort-000-729-703-1

> <s_m_Source_File>
iis-000-000-000--000-499-999_filtered.sdf

> <r_lp_tautomer_probability>
1.0

> <UNVERIFIED_AMOUNT_MG>
100.0

$$$$
MolPort-007-800-282
XX    ILIB07022204093D

 59 62  0  0  1  0              1 V2000
   -0.4607   -0.9666   -2.9883 O   0  0  0  0  0
   -1.6050   -1.9873    4.9805 O   0  0  0  0  0
   -5.9062   -1.5811   -5.5859 O   0  0  0  0  0
   -1.4634   -4.0547   -9.1875 O   0  0  0  0  0
   -3.1846   -0.9285    0.1414 N   0  0  0  0  0
   -4.4902   -3.3438   -5.5703 N   0  0  0  0  0
   -0.3556   -5.5703   -7.8164 N   0  0  0  0  0
   -1.3706   -0.9551   -1.9570 C   0  0  0  0  0
   -1.3906   -1.0527    3.9941 C   0  0  0  0  0
   -3.6045   -1.2344   -1.1006 C   0  0  0  0  0
   -1.8740   -0.6553    0.3319 C   0  0  0  0  0
   -2.7227   -1.2715   -2.2002 C   0  0  0  0  0
   -1.5068   -0.3539    1.6870 C   0  0  0  0  0
   -4.5684   -1.8960   -3.6611 C   0  0  0  0  0
   -0.9294   -0.6599   -0.6714 C   0  0  0  0  0
   -1.7324   -1.3262    2.6709 C   0  0  0  0  0
   -0.8130    0.1819    4.2969 C   0  0  0  0  0
   -4.9512   -1.5254   -1.3135 C   0  0  0  0  0
   -3.2188   -1.6074   -3.4756 C   0  0  0  0  0
   -0.9314    0.9026    1.9565 C   0  0  0  0  0
   -5.4453   -1.8506   -2.5811 C   0  0  0  0  0
   -0.5933    1.1401    3.2969 C   0  0  0  0  0
   -5.0488   -2.2354   -4.9922 C   0  0  0  0  0
   -1.4346   -4.7578   -8.1836 C   0  0  0  0  0
    0.1339   -2.2451   -3.1338 C   0  0  0  0  0
   -2.9014   -1.8369    5.5625 C   0  0  0  0  0
   -3.4658   -4.1953   -4.9590 C   0  0  0  0  0
   -4.9180   -3.7666   -6.9043 C   0  0  0  0  0
   -2.6182   -4.7539   -7.2773 C   0  0  0  0  0
   -2.2393   -4.2852   -5.8633 C   0  0  0  0  0
   -3.7275   -3.8604   -7.8535 C   0  0  0  0  0
    1.1196   -2.1738   -4.2852 C   0  0  0  0  0
    0.4695   -5.6072   -8.3977 H   0  0  0  0  0
   -0.4021   -6.1196   -6.9701 H   0  0  0  0  0
    0.0855   -0.4529   -0.4992 H   0  0  0  0  0
   -2.1548   -2.2538    2.4188 H   0  0  0  0  0
   -0.5363    0.4038    5.2852 H   0  0  0  0  0
   -5.6264   -1.5041   -0.5096 H   0  0  0  0  0
   -2.5686   -1.6422   -4.2994 H   0  0  0  0  0
   -0.7817    1.5896    1.1767 H   0  0  0  0  0
   -6.4645   -2.0591   -2.7233 H   0  0  0  0  0
   -0.1644    2.0665    3.5426 H   0  0  0  0  0
    0.6310   -2.5030   -2.2456 H   0  0  0  0  0
   -0.6111   -2.9565   -3.3371 H   0  0  0  0  0
   -2.9454   -0.9297    6.0893 H   0  0  0  0  0
   -3.6276   -1.8369    4.8042 H   0  0  0  0  0
   -3.0837   -2.6336    6.2217 H   0  0  0  0  0
   -3.8541   -5.1598   -4.8127 H   0  0  0  0  0
   -3.1795   -3.7892   -4.0340 H   0  0  0  0  0
   -5.3756   -4.7096   -6.8426 H   0  0  0  0  0
   -5.6027   -3.0699   -7.2895 H   0  0  0  0  0
   -3.0124   -5.7249   -7.2123 H   0  0  0  0  0
   -1.5547   -4.9702   -5.4575 H   0  0  0  0  0
   -1.7876   -3.3401   -5.9355 H   0  0  0  0  0
   -4.0410   -4.2680   -8.7689 H   0  0  0  0  0
   -3.3319   -2.9012   -8.0146 H   0  0  0  0  0
    2.0649   -2.4920   -3.9569 H   0  0  0  0  0
    0.7923   -2.7959   -5.0652 H   0  0  0  0  0
    1.1837   -1.1842   -4.6303 H   0  0  0  0  0
  1  8  1  0  0  0
  1 25  1  0  0  0
  2  9  1  0  0  0
  2 26  1  0  0  0
  3 23  2  0  0  0
  4 24  2  0  0  0
  5 10  2  0  0  0
  5 11  1  0  0  0
  6 23  1  0  0  0
  6 27  1  0  0  0
  6 28  1  0  0  0
  7 24  1  0  0  0
  7 33  1  0  0  0
  7 34  1  0  0  0
  8 12  2  0  0  0
  8 15  1  0  0  0
  9 16  2  0  0  0
  9 17  1  0  0  0
 10 12  1  0  0  0
 10 18  1  0  0  0
 11 13  1  0  0  0
 11 15  2  0  0  0
 12 19  1  0  0  0
 13 16  1  0  0  0
 13 20  2  0  0  0
 14 19  2  0  0  0
 14 21  1  0  0  0
 14 23  1  0  0  0
 15 35  1  0  0  0
 16 36  1  0  0  0
 17 22  2  0  0  0
 17 37  1  0  0  0
 18 21  2  0  0  0
 18 38  1  0  0  0
 19 39  1  0  0  0
 20 22  1  0  0  0
 20 40  1  0  0  0
 21 41  1  0  0  0
 22 42  1  0  0  0
 24 29  1  0  0  0
 25 32  1  0  0  0
 25 43  1  0  0  0
 25 44  1  0  0  0
 26 45  1  0  0  0
 26 46  1  0  0  0
 26 47  1  0  0  0
 27 30  1  0  0  0
 27 48  1  0  0  0
 27 49  1  0  0  0
 28 31  1  0  0  0
 28 50  1  0  0  0
 28 51  1  0  0  0
 29 30  1  0  0  0
 29 31  1  0  0  0
 29 52  1  0  0  0
 30 53  1  0  0  0
 30 54  1  0  0  0
 31 55  1  0  0  0
 31 56  1  0  0  0
 32 57  1  0  0  0
 32 58  1  0  0  0
 32 59  1  0  0  0
M  END
> <QPhAR in domain>
True

> <s_m_source_file>
iis-003-000-000--003-499-999_filtered_optim.maegz

> <PRICERANGE_50MG>
100 - 250

> <r_epik_Charging_Adjusted_Penalty>
0.22743

> <PRICERANGE_1MG>
50 - 100

> <Name>
MolPort-007-800-282

> <i_m_Source_File_Index>
25514

> <i_lp_mmshare_version>
36015

> <PUBCHEM_EXT_DATASOURCE_URL>
https://www.molport.com

> <s_lp_Force_Field>
OPLS3

> <r_epik_Ionization_Penalty>
0.236594

> <r_epik_State_Penalty>
0.22743

> <IS_SC>
Yes

> <r_epik_Ionization_Penalty_Neutral>
0.236594

> <s_m_Source_Path>
/home/mrgulotta/data_server/CADD/LIBRERIE/OTTIMIZZATE/MOLPORT/ALL_STOCK_COMPOUNDS_FILTERED_NEW

> <i_m_source_file_index>
25514

> <PUBCHEM_EXT_SUBSTANCE_URL>
https://www.molport.com/shop/molecule-link/MolPort-007-800-282

> <VERIFIED_AMOUNT_MG>
50

> <r_epik_Ionization_Penalty_Charging>
0.0

> <r_lp_Energy>
56.4029

> <QC_METHOD>
NMR

> <QPhAR prediction>
6.76002415157795

> <i_epik_Tot_abs_Q>
0

> <i_epik_Tot_Q>
0

> <cdk:Title>
null

> <b_lp_Chiralities_Consistent>
1

> <s_m_entry_name>
iis-003-000-000--003-499-999_filtered.25514

> <i_f3d_flags>
0

> <PRICERANGE_5MG>
50 - 100

> <COMPOUND_STATE>
SOLID

> <s_m_entry_id>
183943

> <Molecule_Name>
MolPort-007-800-282

> <Score>
0.9419008688934442

> <BEST_LEAD_TIME>
10

> <s_lp_Variant>
MolPort-007-800-282-1

> <s_m_Source_File>
iis-003-000-000--003-499-999_filtered.sdf

> <r_lp_tautomer_probability>
1.0

> <UNVERIFIED_AMOUNT_MG>
50

$$$$
MolPort-000-733-618
XX    ILIB07022204093D

 55 58  0  0  1  0              1 V2000
    0.1670   -1.6567    5.1348 O   0  0  0  0  0
    3.5664   -1.9546   -6.2344 O   0  0  0  0  0
   -1.0200   -0.7744    0.4493 N   0  0  0  0  0
   -0.3064   -1.0063   -0.6846 N   0  0  0  0  0
   -3.0029   -0.5786    1.6807 N   0  0  0  0  0
    1.7866   -2.7002   -7.5000 N   0  0  0  0  0
   -0.8691   -0.8848    4.6621 C   0  0  0  0  0
   -2.3730   -0.8311    0.4585 C   0  0  0  0  0
   -0.9502   -1.2842   -1.8335 C   0  0  0  0  0
   -2.4697   -0.3198    2.9463 C   0  0  0  0  0
   -3.0830   -1.0762   -0.7441 C   0  0  0  0  0
   -2.3467   -1.3276   -1.9253 C   0  0  0  0  0
   -0.1061   -1.5244   -2.9697 C   0  0  0  0  0
    1.4907   -1.9521   -5.1719 C   0  0  0  0  0
   -1.4121   -1.1191    3.4004 C   0  0  0  0  0
   -1.3872    0.1588    5.4336 C   0  0  0  0  0
   -3.0205    0.7368    3.6973 C   0  0  0  0  0
   -4.4961   -1.0527   -0.8396 C   0  0  0  0  0
   -3.0449   -1.6089   -3.1250 C   0  0  0  0  0
   -0.3767   -0.8337   -4.1582 C   0  0  0  0  0
    0.9563   -2.4375   -2.8281 C   0  0  0  0  0
    0.4244   -1.0562   -5.2773 C   0  0  0  0  0
    1.7461   -2.6309   -3.9717 C   0  0  0  0  0
   -2.4443    0.9487    4.9590 C   0  0  0  0  0
   -5.1641   -1.3174   -2.0352 C   0  0  0  0  0
   -4.4375   -1.6055   -3.1777 C   0  0  0  0  0
    2.3604   -2.1963   -6.3164 C   0  0  0  0  0
    0.4098   -3.0762   -7.6543 C   0  0  0  0  0
    2.6230   -2.9395   -8.6406 C   0  0  0  0  0
    0.1805   -4.5391   -7.3086 C   0  0  0  0  0
    2.7178   -1.7148   -9.5391 C   0  0  0  0  0
    0.9453   -1.0470    5.4236 H   0  0  0  0  0
   -4.0113   -0.5650    1.7358 H   0  0  0  0  0
   -1.0286   -1.8893    2.7986 H   0  0  0  0  0
   -0.9848    0.3602    6.3823 H   0  0  0  0  0
   -3.8103    1.3053    3.3029 H   0  0  0  0  0
   -5.0759   -0.8307    0.0072 H   0  0  0  0  0
   -2.5126   -1.8269   -4.0034 H   0  0  0  0  0
   -1.1771   -0.1554   -4.2006 H   0  0  0  0  0
    1.1137   -2.9216   -1.9097 H   0  0  0  0  0
    0.2390   -0.5654   -6.1868 H   0  0  0  0  0
    2.5476   -3.3065   -3.9110 H   0  0  0  0  0
   -2.8271    1.7253    5.5530 H   0  0  0  0  0
   -6.2135   -1.2976   -2.0658 H   0  0  0  0  0
   -4.9292   -1.8206   -4.0802 H   0  0  0  0  0
   -0.1863   -2.4904   -7.0187 H   0  0  0  0  0
    0.1147   -2.9232   -8.6503 H   0  0  0  0  0
    2.2276   -3.7321   -9.2045 H   0  0  0  0  0
    3.5911   -3.1878   -8.3188 H   0  0  0  0  0
   -0.0452   -5.0742   -8.1833 H   0  0  0  0  0
   -0.6200   -4.6179   -6.6337 H   0  0  0  0  0
    1.0484   -4.9353   -6.8700 H   0  0  0  0  0
    2.7979   -2.0206  -10.5404 H   0  0  0  0  0
    3.5646   -1.1525   -9.2761 H   0  0  0  0  0
    1.8563   -1.1263   -9.4207 H   0  0  0  0  0
  1  7  1  0  0  0
  1 32  1  0  0  0
  2 27  2  0  0  0
  3  4  2  0  0  0
  3  8  1  0  0  0
  4  9  1  0  0  0
  5  8  1  0  0  0
  5 10  1  0  0  0
  5 33  1  0  0  0
  6 27  1  0  0  0
  6 28  1  0  0  0
  6 29  1  0  0  0
  7 15  2  0  0  0
  7 16  1  0  0  0
  8 11  2  0  0  0
  9 12  2  0  0  0
  9 13  1  0  0  0
 10 15  1  0  0  0
 10 17  2  0  0  0
 11 12  1  0  0  0
 11 18  1  0  0  0
 12 19  1  0  0  0
 13 20  2  0  0  0
 13 21  1  0  0  0
 14 22  2  0  0  0
 14 23  1  0  0  0
 14 27  1  0  0  0
 15 34  1  0  0  0
 16 24  2  0  0  0
 16 35  1  0  0  0
 17 24  1  0  0  0
 17 36  1  0  0  0
 18 25  2  0  0  0
 18 37  1  0  0  0
 19 26  2  0  0  0
 19 38  1  0  0  0
 20 22  1  0  0  0
 20 39  1  0  0  0
 21 23  2  0  0  0
 21 40  1  0  0  0
 22 41  1  0  0  0
 23 42  1  0  0  0
 24 43  1  0  0  0
 25 26  1  0  0  0
 25 44  1  0  0  0
 26 45  1  0  0  0
 28 30  1  0  0  0
 28 46  1  0  0  0
 28 47  1  0  0  0
 29 31  1  0  0  0
 29 48  1  0  0  0
 29 49  1  0  0  0
 30 50  1  0  0  0
 30 51  1  0  0  0
 30 52  1  0  0  0
 31 53  1  0  0  0
 31 54  1  0  0  0
 31 55  1  0  0  0
M  END
> <QPhAR in domain>
True

> <s_m_source_file>
iis-000-000-000--000-499-999_filtered_optim.maegz

> <PRICERANGE_50MG>
50 - 100

> <r_epik_Charging_Adjusted_Penalty>
0.0

> <PRICERANGE_1MG>
< 50

> <Name>
MolPort-000-733-618

> <i_m_Source_File_Index>
24310

> <i_lp_mmshare_version>
36015

> <PUBCHEM_EXT_DATASOURCE_URL>
https://www.molport.com

> <s_lp_Force_Field>
OPLS3

> <r_epik_Ionization_Penalty>
0.0113102

> <r_epik_State_Penalty>
0.0

> <IS_SC>
Yes

> <r_epik_Ionization_Penalty_Neutral>
0.0113102

> <s_m_Source_Path>
/home/mrgulotta/data_server/CADD/LIBRERIE/OTTIMIZZATE/MOLPORT/ALL_STOCK_COMPOUNDS_FILTERED_NEW

> <i_m_source_file_index>
24310

> <PUBCHEM_EXT_SUBSTANCE_URL>
https://www.molport.com/shop/molecule-link/MolPort-000-733-618

> <VERIFIED_AMOUNT_MG>
50.0

> <r_epik_Ionization_Penalty_Charging>
0.0

> <r_lp_Energy>
60.4665

> <QC_METHOD>
NMR

> <QPhAR prediction>
6.76002415157795

> <i_epik_Tot_abs_Q>
0

> <i_epik_Tot_Q>
0

> <cdk:Title>
null

> <b_lp_Chiralities_Consistent>
1

> <s_m_entry_name>
iis-000-000-000--000-499-999_filtered.24310

> <i_f3d_flags>
0

> <PRICERANGE_5MG>
< 50

> <COMPOUND_STATE>
N/A

> <s_m_entry_id>
24310

> <Molecule_Name>
MolPort-000-733-618

> <Score>
0.9337544363023916

> <BEST_LEAD_TIME>
10

> <s_lp_Variant>
MolPort-000-733-618-1

> <s_m_Source_File>
iis-000-000-000--000-499-999_filtered.sdf

> <r_lp_tautomer_probability>
1.0

> <UNVERIFIED_AMOUNT_MG>
100.0

$$$$
MolPort-000-737-402
XX    ILIB07022204093D

 49 52  0  0  1  0              1 V2000
   -2.0693    1.9932    2.2881 O   0  0  0  0  0
    2.9844   -1.3022   -6.8203 O   0  0  0  0  0
   -1.0156   -0.7686    0.4438 N   0  0  0  0  0
   -0.3051   -0.9973   -0.6924 N   0  0  0  0  0
   -2.9961   -0.5806    1.6816 N   0  0  0  0  0
    2.4375   -3.5439   -6.8262 N   0  0  0  0  0
   -2.0000    0.9822    3.2188 C   0  0  0  0  0
   -2.3691   -0.8301    0.4574 C   0  0  0  0  0
   -0.9512   -1.2769   -1.8394 C   0  0  0  0  0
   -2.4590   -0.3207    2.9463 C   0  0  0  0  0
   -3.0811   -1.0771   -0.7432 C   0  0  0  0  0
   -2.3477   -1.3252   -1.9268 C   0  0  0  0  0
   -0.1103   -1.5132   -2.9785 C   0  0  0  0  0
    1.5244   -1.9990   -5.1406 C   0  0  0  0  0
   -1.4727    1.1826    4.5039 C   0  0  0  0  0
   -2.3984   -1.3696    3.8730 C   0  0  0  0  0
   -4.4961   -1.0591   -0.8340 C   0  0  0  0  0
   -3.0488   -1.6079   -3.1250 C   0  0  0  0  0
    0.9478   -2.4229   -2.8486 C   0  0  0  0  0
   -0.3970   -0.8228   -4.1719 C   0  0  0  0  0
    1.7822   -2.6631   -3.9395 C   0  0  0  0  0
    0.4585   -1.0942   -5.2500 C   0  0  0  0  0
   -1.4058    0.1471    5.4473 C   0  0  0  0  0
   -1.8750   -1.1328    5.1426 C   0  0  0  0  0
   -5.1660   -1.3247   -2.0283 C   0  0  0  0  0
   -4.4414   -1.6099   -3.1729 C   0  0  0  0  0
    2.3643   -2.2373   -6.3066 C   0  0  0  0  0
    1.7974   -4.7188   -6.2383 C   0  0  0  0  0
    3.2637   -3.8037   -7.9980 C   0  0  0  0  0
   -1.2440    2.6024    2.3809 H   0  0  0  0  0
   -4.0044   -0.5705    1.7398 H   0  0  0  0  0
   -1.1139    2.1293    4.7824 H   0  0  0  0  0
   -2.7457   -2.3245    3.6085 H   0  0  0  0  0
   -5.0739   -0.8408    0.0151 H   0  0  0  0  0
   -2.5185   -1.8227   -4.0054 H   0  0  0  0  0
    1.1066   -2.9167   -1.9356 H   0  0  0  0  0
   -1.2076   -0.1566   -4.2112 H   0  0  0  0  0
    2.5916   -3.3284   -3.8707 H   0  0  0  0  0
    0.2825   -0.5976   -6.1582 H   0  0  0  0  0
   -0.9987    0.3285    6.3980 H   0  0  0  0  0
   -1.8389   -1.9090    5.8488 H   0  0  0  0  0
   -6.2155   -1.3078   -2.0566 H   0  0  0  0  0
   -4.9354   -1.8269   -4.0737 H   0  0  0  0  0
    1.8755   -5.5288   -6.9019 H   0  0  0  0  0
    2.2726   -4.9604   -5.3337 H   0  0  0  0  0
    0.7842   -4.5114   -6.0569 H   0  0  0  0  0
    4.1519   -4.2789   -7.7016 H   0  0  0  0  0
    3.4940   -2.8956   -8.4722 H   0  0  0  0  0
    2.7406   -4.4238   -8.6646 H   0  0  0  0  0
  1  7  1  0  0  0
  1 30  1  0  0  0
  2 27  2  0  0  0
  3  4  2  0  0  0
  3  8  1  0  0  0
  4  9  1  0  0  0
  5  8  1  0  0  0
  5 10  1  0  0  0
  5 31  1  0  0  0
  6 27  1  0  0  0
  6 28  1  0  0  0
  6 29  1  0  0  0
  7 10  2  0  0  0
  7 15  1  0  0  0
  8 11  2  0  0  0
  9 12  2  0  0  0
  9 13  1  0  0  0
 10 16  1  0  0  0
 11 12  1  0  0  0
 11 17  1  0  0  0
 12 18  1  0  0  0
 13 19  2  0  0  0
 13 20  1  0  0  0
 14 21  2  0  0  0
 14 22  1  0  0  0
 14 27  1  0  0  0
 15 23  2  0  0  0
 15 32  1  0  0  0
 16 24  2  0  0  0
 16 33  1  0  0  0
 17 25  2  0  0  0
 17 34  1  0  0  0
 18 26  2  0  0  0
 18 35  1  0  0  0
 19 21  1  0  0  0
 19 36  1  0  0  0
 20 22  2  0  0  0
 20 37  1  0  0  0
 21 38  1  0  0  0
 22 39  1  0  0  0
 23 24  1  0  0  0
 23 40  1  0  0  0
 24 41  1  0  0  0
 25 26  1  0  0  0
 25 42  1  0  0  0
 26 43  1  0  0  0
 28 44  1  0  0  0
 28 45  1  0  0  0
 28 46  1  0  0  0
 29 47  1  0  0  0
 29 48  1  0  0  0
 29 49  1  0  0  0
M  END
> <QPhAR in domain>
True

> <s_m_source_file>
iis-000-000-000--000-499-999_filtered_optim.maegz

> <PRICERANGE_50MG>
50 - 100

> <r_epik_Charging_Adjusted_Penalty>
0.0

> <PRICERANGE_1MG>
< 50

> <Name>
MolPort-000-737-402

> <i_m_Source_File_Index>
24620

> <i_lp_mmshare_version>
36015

> <PUBCHEM_EXT_DATASOURCE_URL>
https://www.molport.com

> <s_lp_Force_Field>
OPLS3

> <r_epik_Ionization_Penalty>
0.00933971

> <r_epik_State_Penalty>
0.0

> <IS_SC>
Yes

> <r_epik_Ionization_Penalty_Neutral>
0.00933971

> <s_m_Source_Path>
/home/mrgulotta/data_server/CADD/LIBRERIE/OTTIMIZZATE/MOLPORT/ALL_STOCK_COMPOUNDS_FILTERED_NEW

> <i_m_source_file_index>
24620

> <PUBCHEM_EXT_SUBSTANCE_URL>
https://www.molport.com/shop/molecule-link/MolPort-000-737-402

> <VERIFIED_AMOUNT_MG>
50.0

> <r_epik_Ionization_Penalty_Charging>
0.0

> <r_lp_Energy>
65.3586

> <QC_METHOD>
NMR

> <QPhAR prediction>
6.76002415157795

> <i_epik_Tot_abs_Q>
0

> <i_epik_Tot_Q>
0

> <cdk:Title>
null

> <b_lp_Chiralities_Consistent>
1

> <s_m_entry_name>
iis-000-000-000--000-499-999_filtered.24620

> <i_f3d_flags>
0

> <PRICERANGE_5MG>
< 50

> <COMPOUND_STATE>
N/A

> <s_m_entry_id>
24620

> <Molecule_Name>
MolPort-000-737-402

> <Score>
0.9336775468728146

> <BEST_LEAD_TIME>
10

> <s_lp_Variant>
MolPort-000-737-402-1

> <s_m_Source_File>
iis-000-000-000--000-499-999_filtered.sdf

> <r_lp_tautomer_probability>
1.0

> <UNVERIFIED_AMOUNT_MG>
100.0

$$$$
