_Ibutilide
XXILIB    06242209073D 0   0.00000     0.00000

 62 62  0     1  0            999 V2000
    1.5373   -5.3670   -8.9892 S   0  0  0  0  0  6           0  0  0
    1.3227   -3.9426   -9.1537 O   0  0  0  0  0  2           0  0  0
    1.5252   -6.2638  -10.1290 O   0  0  0  0  0  2           0  0  0
    0.9655   -2.3803   -2.4725 O   0  0  0  0  0  2           0  0  0
    0.4843   -5.9584   -7.7722 N   0  0  0  0  0  3           0  0  0
   -3.0959   -1.4061    0.7964 N   0  0  0  0  0  3           0  0  0
    0.4327   -5.3513   -6.4751 C   0  0  0  0  0  4           0  0  0
    0.1421   -4.1064   -3.9623 C   0  0  0  0  0  4           0  0  0
    0.0731   -4.0032   -6.3915 C   0  0  0  0  0  4           0  0  0
    0.5977   -6.0888   -5.2990 C   0  0  0  0  0  4           0  0  0
   -0.0562   -3.3829   -5.1467 C   0  0  0  0  0  4           0  0  0
    0.4670   -5.4662   -4.0542 C   0  0  0  0  0  4           0  0  0
    3.0870   -5.5947   -8.1527 C   0  0  0  0  0  4           0  0  0
    0.0252   -3.4461   -2.6130 C   0  0  0  0  0  4           0  0  0
   -2.9612   -1.9228   -0.5630 C   0  0  0  0  0  4           0  0  0
   -2.2210   -0.2678    1.0896 C   0  0  0  0  0  4           0  0  0
   -3.1031   -2.4435    1.8273 C   0  0  0  0  0  4           0  0  0
   -1.3882   -2.9569   -2.2983 C   0  0  0  0  0  4           0  0  0
   -1.5453   -2.4128   -0.8783 C   0  0  0  0  0  4           0  0  0
   -2.4776    0.9338    0.1759 C   0  0  0  0  0  4           0  0  0
   -3.9019    1.4811    0.2705 C   0  0  0  0  0  4           0  0  0
   -4.1582    2.6808   -0.6417 C   0  0  0  0  0  4           0  0  0
   -5.5825    3.2282   -0.5472 C   0  0  0  0  0  4           0  0  0
   -5.8388    4.4279   -1.4594 C   0  0  0  0  0  4           0  0  0
   -4.2569   -3.4230    1.6364 C   0  0  0  0  0  4           0  0  0
   -7.2595    4.9613   -1.3546 C   0  0  0  0  0  4           0  0  0
    0.8689   -1.9838   -1.6146 H   0  0  0  0  0  1           0  0  0
   -0.1225   -6.7650   -7.9772 H   0  0  0  0  0  1           0  0  0
   -0.1040   -3.4433   -7.2860 H   0  0  0  0  0  1           0  0  0
    0.8248   -7.1331   -5.3518 H   0  0  0  0  0  1           0  0  0
   -0.3093   -2.3444   -5.0965 H   0  0  0  0  0  1           0  0  0
    0.6169   -6.0352   -3.1606 H   0  0  0  0  0  1           0  0  0
    3.2696   -6.6404   -8.0185 H   0  0  0  0  0  1           0  0  0
    3.0509   -5.1135   -7.1977 H   0  0  0  0  0  1           0  0  0
    3.8743   -5.1673   -8.7379 H   0  0  0  0  0  1           0  0  0
    0.2702   -4.1880   -1.8820 H   0  0  0  0  0  1           0  0  0
   -3.2134   -1.1429   -1.2509 H   0  0  0  0  0  1           0  0  0
   -3.6404   -2.7403   -0.6860 H   0  0  0  0  0  1           0  0  0
   -1.2044   -0.5784    0.9672 H   0  0  0  0  0  1           0  0  0
   -2.3820    0.0341    2.1034 H   0  0  0  0  0  1           0  0  0
   -3.1986   -1.9784    2.7862 H   0  0  0  0  0  1           0  0  0
   -2.1799   -2.9826    1.7828 H   0  0  0  0  0  1           0  0  0
   -2.0653   -3.7758   -2.4236 H   0  0  0  0  0  1           0  0  0
   -1.6383   -2.1784   -2.9885 H   0  0  0  0  0  1           0  0  0
   -1.2952   -3.1912   -0.1881 H   0  0  0  0  0  1           0  0  0
   -0.8681   -1.5939   -0.7529 H   0  0  0  0  0  1           0  0  0
   -2.2966    0.6346   -0.8353 H   0  0  0  0  0  1           0  0  0
   -1.7967    1.7144    0.4442 H   0  0  0  0  0  1           0  0  0
   -4.0829    1.7803    1.2817 H   0  0  0  0  0  1           0  0  0
   -4.5828    0.7006    0.0021 H   0  0  0  0  0  1           0  0  0
   -3.9772    2.3816   -1.6530 H   0  0  0  0  0  1           0  0  0
   -3.4773    3.4614   -0.3734 H   0  0  0  0  0  1           0  0  0
   -5.7635    3.5273    0.4641 H   0  0  0  0  0  1           0  0  0
   -6.2634    2.4476   -0.8155 H   0  0  0  0  0  1           0  0  0
   -5.6598    4.1310   -2.4717 H   0  0  0  0  0  1           0  0  0
   -5.1600    5.2107   -1.1920 H   0  0  0  0  0  1           0  0  0
   -4.2272   -4.1639    2.4079 H   0  0  0  0  0  1           0  0  0
   -4.1670   -3.8983    0.6819 H   0  0  0  0  0  1           0  0  0
   -5.1857   -2.8941    1.6854 H   0  0  0  0  0  1           0  0  0
   -7.3765    5.7963   -2.0134 H   0  0  0  0  0  1           0  0  0
   -7.4507    5.2713   -0.3485 H   0  0  0  0  0  1           0  0  0
   -7.9505    4.1916   -1.6281 H   0  0  0  0  0  1           0  0  0
  1  2  2  0     0  0
  1  3  2  0     0  0
  1  5  1  0     0  0
  1 13  1  0     0  0
  4 14  1  0     0  0
  4 27  1  0     0  0
  5  7  1  0     0  0
  5 28  1  0     0  0
  6 15  1  0     0  0
  6 16  1  0     0  0
  6 17  1  0     0  0
  7  9  2  0     0  0
  7 10  1  0     0  0
  8 11  2  0     0  0
  8 12  1  0     0  0
  8 14  1  0     0  0
  9 11  1  0     0  0
  9 29  1  0     0  0
 10 12  2  0     0  0
 10 30  1  0     0  0
 11 31  1  0     0  0
 12 32  1  0     0  0
 13 33  1  0     0  0
 13 34  1  0     0  0
 13 35  1  0     0  0
 14 18  1  0     0  0
 14 36  1  0     0  0
 15 19  1  0     0  0
 15 37  1  0     0  0
 15 38  1  0     0  0
 16 20  1  0     0  0
 16 39  1  0     0  0
 16 40  1  0     0  0
 17 25  1  0     0  0
 17 41  1  0     0  0
 17 42  1  0     0  0
 18 19  1  0     0  0
 18 43  1  0     0  0
 18 44  1  0     0  0
 19 45  1  0     0  0
 19 46  1  0     0  0
 20 21  1  0     0  0
 20 47  1  0     0  0
 20 48  1  0     0  0
 21 22  1  0     0  0
 21 49  1  0     0  0
 21 50  1  0     0  0
 22 23  1  0     0  0
 22 51  1  0     0  0
 22 52  1  0     0  0
 23 24  1  0     0  0
 23 53  1  0     0  0
 23 54  1  0     0  0
 24 26  1  0     0  0
 24 55  1  0     0  0
 24 56  1  0     0  0
 25 57  1  0     0  0
 25 58  1  0     0  0
 25 59  1  0     0  0
 26 60  1  0     0  0
 26 61  1  0     0  0
 26 62  1  0     0  0
M  END
> <Smiles>
CCCCCCCN(CC)CCCC(O)c1ccc(NS(C)(=O)=O)cc1

> <Name>
Ibutilide

> <# Confs.>
25

> <Chembl_id>
CHEMBL533

> <prediction>
5.991513706756118

$$$$
