1_
XXILIB    08252103493D 0   0.00000     0.00000

 36 38  0     1  0            999 V2000
  -16.5836   -0.1054    5.7217 Cl  0  0  0  0  0  1           0  0  0
  -10.3896   -0.0716    8.5854 O   0  0  0  0  0  2           0  0  0
  -10.0036   -0.0248    3.9011 O   0  0  0  0  0  2           0  0  0
   -6.9384   -0.0000    3.1127 O   0  0  0  0  0  2           0  0  0
   -7.3647   -0.0286    7.5720 N   0  0  0  0  0  3           0  0  0
   -6.4029   -0.0124    6.6183 N   0  0  0  0  0  3           0  0  0
  -10.6496   -0.0546    6.2069 N   0  0  2  0  0  3           0  0  0
  -14.8677   -0.0920    5.8605 C   0  0  0  0  0  4           0  0  0
   -8.6001   -0.0385    7.0394 C   0  0  0  0  0  4           0  0  0
   -7.0792   -0.0127    5.4470 C   0  0  0  0  0  4           0  0  0
  -12.0661   -0.0694    6.0891 C   0  0  0  0  0  4           0  0  0
   -8.4589   -0.0272    5.6868 C   0  0  0  0  0  4           0  0  0
  -14.0975    0.5252    4.8788 C   0  0  0  0  0  4           0  0  0
  -14.2566   -0.6990    6.9544 C   0  0  0  0  0  4           0  0  0
  -12.7039    0.5354    4.9930 C   0  0  0  0  0  4           0  0  0
  -12.8632   -0.6876    7.0675 C   0  0  0  0  0  4           0  0  0
   -9.9659   -0.0567    7.4411 C   0  0  0  0  0  4           0  0  0
   -9.7711   -0.0354    5.0986 C   0  0  0  0  0  4           0  0  0
   -6.3442   -0.0000    4.1907 C   0  0  0  0  0  4           0  0  0
   -4.8306    0.0000    4.2191 C   0  0  0  0  0  4           0  0  0
   -4.2380   -0.0000    2.8129 C   0  0  0  0  0  4           0  0  0
   -2.7117    0.0000    2.8129 C   0  0  0  0  0  4           0  0  0
   -2.1190   -0.0000    1.4064 C   0  0  0  0  0  4           0  0  0
   -0.5927    0.0000    1.4064 C   0  0  0  0  0  4           0  0  0
    0.0000   -0.0000    0.0000 C   0  0  0  0  0  4           0  0  0
    1.5260    0.0000    0.0000 C   0  0  0  0  0  4           0  0  0
    2.1188    0.0000   -1.4064 C   0  0  0  0  0  4           0  0  0
    3.6450    0.0000   -1.4064 C   0  0  0  0  0  4           0  0  0
    4.2378    0.0000   -2.8129 C   0  0  0  0  0  4           0  0  0
    5.7640    0.0000   -2.8129 C   0  0  0  0  0  4           0  0  0
    6.3567    0.0000   -4.2193 C   0  0  0  0  0  4           0  0  0
    7.8830    0.0000   -4.2193 C   0  0  0  0  0  4           0  0  0
    8.4757    0.0000   -5.6258 C   0  0  0  0  0  4           0  0  0
   10.0019    0.0000   -5.6258 C   0  0  0  0  0  4           0  0  0
   10.5947    0.0000   -7.0322 C   0  0  0  0  0  4           0  0  0
   12.1162    0.0000   -7.0310 C   0  0  0  0  0  4           0  0  0
  1  8  1  0     0  0
  2 17  2  0     0  0
  3 18  2  0     0  0
  4 19  2  0     0  0
  5  6  1  0     0  0
  5  9  1  0     0  0
  6 10  2  0     0  0
  7 11  1  0     0  0
  7 17  1  0     0  0
  7 18  1  0     0  0
  8 13  2  0     0  0
  8 14  1  0     0  0
  9 12  2  0     0  0
  9 17  1  0     0  0
 10 12  1  0     0  0
 10 19  1  0     0  0
 11 15  2  0     0  0
 11 16  1  0     0  0
 12 18  1  0     0  0
 13 15  1  0     0  0
 14 16  2  0     0  0
 19 20  1  0     0  0
 20 21  1  0     0  0
 21 22  1  0     0  0
 22 23  1  0     0  0
 23 24  1  0     0  0
 24 25  1  0     0  0
 25 26  1  0     0  0
 26 27  1  0     0  0
 27 28  1  0     0  0
 28 29  1  0     0  0
 29 30  1  0     0  0
 30 31  1  0     0  0
 31 32  1  0     0  0
 32 33  1  0     0  0
 33 34  1  0     0  0
 34 35  1  0     0  0
 35 36  1  0     0  0
M  END
> <standard_type>
IC50

> <# Confs.>
25

> <canonical_smiles>
ClC1=CC=C(N2C(C(C(C(CCCCCCCCCCCCCCCCC)=O)=NN3)=C3C2=O)=O)C=C1

> <standard_relation>
=

> <predicted_activity_value>
6.6777807052660805

> <actual_activity_value>
6.769551078621726

> <Compound>
1

> <publication_ID>
Ma_2018

> <standard_units>
nM

> hash
1119249693851212379

$$$$
1_
XXILIB    08252103493D 0   0.00000     0.00000

 36 38  0     1  0            999 V2000
  -16.5492   -1.7233    3.8933 Cl  0  0  0  0  0  1           0  0  0
  -10.3042   -4.4701    4.0446 O   0  0  0  0  0  2           0  0  0
  -10.0072    0.2207    4.0970 O   0  0  0  0  0  2           0  0  0
   -6.9585    1.0666    4.1791 O   0  0  0  0  0  2           0  0  0
   -7.3002   -3.4000    4.1440 N   0  0  0  0  0  3           0  0  0
   -6.3570   -2.4283    4.1780 N   0  0  0  0  0  3           0  0  0
  -10.6091   -2.0969    4.0558 N   0  0  2  0  0  3           0  0  0
  -14.8315   -1.8299    3.9389 C   0  0  0  0  0  4           0  0  0
   -8.5450   -2.8907    4.1107 C   0  0  0  0  0  4           0  0  0
   -7.0551   -1.2699    4.1646 C   0  0  0  0  0  4           0  0  0
  -12.0270   -2.0057    4.0144 C   0  0  0  0  0  4           0  0  0
   -8.4295   -1.5357    4.1243 C   0  0  0  0  0  4           0  0  0
  -14.0916   -0.8339    4.5702 C   0  0  0  0  0  4           0  0  0
  -14.1887   -2.9121    3.3440 C   0  0  0  0  0  4           0  0  0
  -12.6966   -0.9218    4.6067 C   0  0  0  0  0  4           0  0  0
  -12.7939   -2.9989    3.3816 C   0  0  0  0  0  4           0  0  0
   -9.9024   -3.3180    4.0670 C   0  0  0  0  0  4           0  0  0
   -9.7521   -0.9722    4.0912 C   0  0  0  0  0  4           0  0  0
   -6.3442   -0.0000    4.1907 C   0  0  0  0  0  4           0  0  0
   -4.8306    0.0000    4.2191 C   0  0  0  0  0  4           0  0  0
   -4.2380   -0.0000    2.8129 C   0  0  0  0  0  4           0  0  0
   -2.7117    0.0000    2.8129 C   0  0  0  0  0  4           0  0  0
   -2.1190   -0.0000    1.4064 C   0  0  0  0  0  4           0  0  0
   -0.5927    0.0000    1.4064 C   0  0  0  0  0  4           0  0  0
    0.0000   -0.0000    0.0000 C   0  0  0  0  0  4           0  0  0
    1.5260    0.0000    0.0000 C   0  0  0  0  0  4           0  0  0
    2.1188    0.0000   -1.4064 C   0  0  0  0  0  4           0  0  0
    3.6450    0.0000   -1.4064 C   0  0  0  0  0  4           0  0  0
    4.2378    0.0000   -2.8129 C   0  0  0  0  0  4           0  0  0
    5.7640    0.0000   -2.8129 C   0  0  0  0  0  4           0  0  0
    6.3567    0.0000   -4.2193 C   0  0  0  0  0  4           0  0  0
    7.8830    0.0000   -4.2193 C   0  0  0  0  0  4           0  0  0
    8.4757    0.0000   -5.6258 C   0  0  0  0  0  4           0  0  0
   10.0019    0.0000   -5.6258 C   0  0  0  0  0  4           0  0  0
   10.5947    0.0000   -7.0322 C   0  0  0  0  0  4           0  0  0
   12.1162    0.0000   -7.0310 C   0  0  0  0  0  4           0  0  0
  1  8  1  0     0  0
  2 17  2  0     0  0
  3 18  2  0     0  0
  4 19  2  0     0  0
  5  6  1  0     0  0
  5  9  1  0     0  0
  6 10  2  0     0  0
  7 11  1  0     0  0
  7 17  1  0     0  0
  7 18  1  0     0  0
  8 13  2  0     0  0
  8 14  1  0     0  0
  9 12  2  0     0  0
  9 17  1  0     0  0
 10 12  1  0     0  0
 10 19  1  0     0  0
 11 15  2  0     0  0
 11 16  1  0     0  0
 12 18  1  0     0  0
 13 15  1  0     0  0
 14 16  2  0     0  0
 19 20  1  0     0  0
 20 21  1  0     0  0
 21 22  1  0     0  0
 22 23  1  0     0  0
 23 24  1  0     0  0
 24 25  1  0     0  0
 25 26  1  0     0  0
 26 27  1  0     0  0
 27 28  1  0     0  0
 28 29  1  0     0  0
 29 30  1  0     0  0
 30 31  1  0     0  0
 31 32  1  0     0  0
 32 33  1  0     0  0
 33 34  1  0     0  0
 34 35  1  0     0  0
 35 36  1  0     0  0
M  END
> <standard_type>
IC50

> <# Confs.>
25

> <canonical_smiles>
ClC1=CC=C(N2C(C(C(C(CCCCCCCCCCCCCCCCC)=O)=NN3)=C3C2=O)=O)C=C1

> <standard_relation>
=

> <predicted_activity_value>
6.6777807052660805

> <actual_activity_value>
6.769551078621726

> <Compound>
1

> <publication_ID>
Ma_2018

> <standard_units>
nM

> hash
1119249693851212379

$$$$
1_
XXILIB    08252103493D 0   0.00000     0.00000

 36 38  0     1  0            999 V2000
  -16.5532    1.7233    4.1040 Cl  0  0  0  0  0  1           0  0  0
  -10.3069    4.4701    4.1877 O   0  0  0  0  0  2           0  0  0
  -10.0082   -0.2207    4.1465 O   0  0  0  0  0  2           0  0  0
   -6.9585   -1.0666    4.1791 O   0  0  0  0  0  2           0  0  0
   -7.3013    3.4000    4.2013 N   0  0  0  0  0  3           0  0  0
   -6.3575    2.4283    4.2028 N   0  0  0  0  0  3           0  0  0
  -10.6112    2.0969    4.1650 N   0  0  2  0  0  3           0  0  0
  -14.8350    1.8299    4.1229 C   0  0  0  0  0  4           0  0  0
   -8.5465    2.8907    4.1878 C   0  0  0  0  0  4           0  0  0
   -7.0555    1.2699    4.1899 C   0  0  0  0  0  4           0  0  0
  -12.0296    2.0057    4.1531 C   0  0  0  0  0  4           0  0  0
   -8.4305    1.5357    4.1786 C   0  0  0  0  0  4           0  0  0
  -14.0719    0.8339    3.5200 C   0  0  0  0  0  4           0  0  0
  -14.2150    2.9121    4.7417 C   0  0  0  0  0  4           0  0  0
  -12.6764    0.9218    3.5360 C   0  0  0  0  0  4           0  0  0
  -12.8197    2.9989    4.7566 C   0  0  0  0  0  4           0  0  0
   -9.9046    3.3180    4.1804 C   0  0  0  0  0  4           0  0  0
   -9.7535    0.9722    4.1619 C   0  0  0  0  0  4           0  0  0
   -6.3442   -0.0000    4.1907 C   0  0  0  0  0  4           0  0  0
   -4.8306    0.0000    4.2191 C   0  0  0  0  0  4           0  0  0
   -4.2380   -0.0000    2.8129 C   0  0  0  0  0  4           0  0  0
   -2.7117    0.0000    2.8129 C   0  0  0  0  0  4           0  0  0
   -2.1190   -0.0000    1.4064 C   0  0  0  0  0  4           0  0  0
   -0.5927    0.0000    1.4064 C   0  0  0  0  0  4           0  0  0
    0.0000   -0.0000    0.0000 C   0  0  0  0  0  4           0  0  0
    1.5260    0.0000    0.0000 C   0  0  0  0  0  4           0  0  0
    2.1188    0.0000   -1.4064 C   0  0  0  0  0  4           0  0  0
    3.6450    0.0000   -1.4064 C   0  0  0  0  0  4           0  0  0
    4.2378    0.0000   -2.8129 C   0  0  0  0  0  4           0  0  0
    5.7640    0.0000   -2.8129 C   0  0  0  0  0  4           0  0  0
    6.3567    0.0000   -4.2193 C   0  0  0  0  0  4           0  0  0
    7.8830    0.0000   -4.2193 C   0  0  0  0  0  4           0  0  0
    8.4757    0.0000   -5.6258 C   0  0  0  0  0  4           0  0  0
   10.0019    0.0000   -5.6258 C   0  0  0  0  0  4           0  0  0
   10.5947    0.0000   -7.0322 C   0  0  0  0  0  4           0  0  0
   12.1162    0.0000   -7.0310 C   0  0  0  0  0  4           0  0  0
  1  8  1  0     0  0
  2 17  2  0     0  0
  3 18  2  0     0  0
  4 19  2  0     0  0
  5  6  1  0     0  0
  5  9  1  0     0  0
  6 10  2  0     0  0
  7 11  1  0     0  0
  7 17  1  0     0  0
  7 18  1  0     0  0
  8 13  2  0     0  0
  8 14  1  0     0  0
  9 12  2  0     0  0
  9 17  1  0     0  0
 10 12  1  0     0  0
 10 19  1  0     0  0
 11 15  2  0     0  0
 11 16  1  0     0  0
 12 18  1  0     0  0
 13 15  1  0     0  0
 14 16  2  0     0  0
 19 20  1  0     0  0
 20 21  1  0     0  0
 21 22  1  0     0  0
 22 23  1  0     0  0
 23 24  1  0     0  0
 24 25  1  0     0  0
 25 26  1  0     0  0
 26 27  1  0     0  0
 27 28  1  0     0  0
 28 29  1  0     0  0
 29 30  1  0     0  0
 30 31  1  0     0  0
 31 32  1  0     0  0
 32 33  1  0     0  0
 33 34  1  0     0  0
 34 35  1  0     0  0
 35 36  1  0     0  0
M  END
> <standard_type>
IC50

> <# Confs.>
25

> <canonical_smiles>
ClC1=CC=C(N2C(C(C(C(CCCCCCCCCCCCCCCCC)=O)=NN3)=C3C2=O)=O)C=C1

> <standard_relation>
=

> <predicted_activity_value>
6.6777807052660805

> <actual_activity_value>
6.769551078621726

> <Compound>
1

> <publication_ID>
Ma_2018

> <standard_units>
nM

> hash
1119249693851212379

$$$$
1_
XXILIB    08252103493D 0   0.00000     0.00000

 36 38  0     1  0            999 V2000
  -16.5772   -0.9447    5.4271 Cl  0  0  0  0  0  1           0  0  0
  -10.3777   -2.2970    7.9509 O   0  0  0  0  0  2           0  0  0
  -10.0039    0.0889    3.9183 O   0  0  0  0  0  2           0  0  0
   -6.9411    0.5333    3.2556 O   0  0  0  0  0  2           0  0  0
   -7.3559   -1.7248    7.1023 N   0  0  0  0  0  3           0  0  0
   -6.3967   -1.2249    6.2868 N   0  0  0  0  0  3           0  0  0
  -10.6438   -1.0957    5.8987 N   0  0  2  0  0  3           0  0  0
  -14.8616   -0.9903    5.5629 C   0  0  0  0  0  4           0  0  0
   -8.5925   -1.4787    6.6330 C   0  0  0  0  0  4           0  0  0
   -7.0759   -0.6459    5.2705 C   0  0  0  0  0  4           0  0  0
  -12.0604   -1.0629    5.7857 C   0  0  0  0  0  4           0  0  0
   -8.4548   -0.7914    5.4675 C   0  0  0  0  0  4           0  0  0
  -14.0752   -1.0003    4.4142 C   0  0  0  0  0  4           0  0  0
  -14.2669   -1.0172    6.8214 C   0  0  0  0  0  4           0  0  0
  -12.6819   -1.0370    4.5260 C   0  0  0  0  0  4           0  0  0
  -12.8737   -1.0535    6.9317 C   0  0  0  0  0  4           0  0  0
   -9.9570   -1.7081    6.9683 C   0  0  0  0  0  4           0  0  0
   -9.7683   -0.5168    4.9507 C   0  0  0  0  0  4           0  0  0
   -6.3442   -0.0000    4.1907 C   0  0  0  0  0  4           0  0  0
   -4.8306    0.0000    4.2191 C   0  0  0  0  0  4           0  0  0
   -4.2380   -0.0000    2.8129 C   0  0  0  0  0  4           0  0  0
   -2.7117    0.0000    2.8129 C   0  0  0  0  0  4           0  0  0
   -2.1190   -0.0000    1.4064 C   0  0  0  0  0  4           0  0  0
   -0.5927    0.0000    1.4064 C   0  0  0  0  0  4           0  0  0
    0.0000   -0.0000    0.0000 C   0  0  0  0  0  4           0  0  0
    1.5260    0.0000    0.0000 C   0  0  0  0  0  4           0  0  0
    2.1188    0.0000   -1.4064 C   0  0  0  0  0  4           0  0  0
    3.6450    0.0000   -1.4064 C   0  0  0  0  0  4           0  0  0
    4.2378    0.0000   -2.8129 C   0  0  0  0  0  4           0  0  0
    5.7640    0.0000   -2.8129 C   0  0  0  0  0  4           0  0  0
    6.3567    0.0000   -4.2193 C   0  0  0  0  0  4           0  0  0
    7.8830    0.0000   -4.2193 C   0  0  0  0  0  4           0  0  0
    8.4757    0.0000   -5.6258 C   0  0  0  0  0  4           0  0  0
   10.0019    0.0000   -5.6258 C   0  0  0  0  0  4           0  0  0
   10.5947    0.0000   -7.0322 C   0  0  0  0  0  4           0  0  0
   12.1162    0.0000   -7.0310 C   0  0  0  0  0  4           0  0  0
  1  8  1  0     0  0
  2 17  2  0     0  0
  3 18  2  0     0  0
  4 19  2  0     0  0
  5  6  1  0     0  0
  5  9  1  0     0  0
  6 10  2  0     0  0
  7 11  1  0     0  0
  7 17  1  0     0  0
  7 18  1  0     0  0
  8 13  2  0     0  0
  8 14  1  0     0  0
  9 12  2  0     0  0
  9 17  1  0     0  0
 10 12  1  0     0  0
 10 19  1  0     0  0
 11 15  2  0     0  0
 11 16  1  0     0  0
 12 18  1  0     0  0
 13 15  1  0     0  0
 14 16  2  0     0  0
 19 20  1  0     0  0
 20 21  1  0     0  0
 21 22  1  0     0  0
 22 23  1  0     0  0
 23 24  1  0     0  0
 24 25  1  0     0  0
 25 26  1  0     0  0
 26 27  1  0     0  0
 27 28  1  0     0  0
 28 29  1  0     0  0
 29 30  1  0     0  0
 30 31  1  0     0  0
 31 32  1  0     0  0
 32 33  1  0     0  0
 33 34  1  0     0  0
 34 35  1  0     0  0
 35 36  1  0     0  0
M  END
> <standard_type>
IC50

> <# Confs.>
25

> <canonical_smiles>
ClC1=CC=C(N2C(C(C(C(CCCCCCCCCCCCCCCCC)=O)=NN3)=C3C2=O)=O)C=C1

> <standard_relation>
=

> <predicted_activity_value>
6.6777807052660805

> <actual_activity_value>
6.769551078621726

> <Compound>
1

> <publication_ID>
Ma_2018

> <standard_units>
nM

> hash
1119249693851212379

$$$$
1_
XXILIB    08252103493D 0   0.00000     0.00000

 36 38  0     1  0            999 V2000
  -16.5792    0.7649    5.5309 Cl  0  0  0  0  0  1           0  0  0
  -10.3791    2.1731    8.0225 O   0  0  0  0  0  2           0  0  0
  -10.0044   -0.1318    3.9431 O   0  0  0  0  0  2           0  0  0
   -6.9411   -0.5333    3.2556 O   0  0  0  0  0  2           0  0  0
   -7.3564    1.6752    7.1309 N   0  0  0  0  0  3           0  0  0
   -6.3969    1.2034    6.2992 N   0  0  0  0  0  3           0  0  0
  -10.6448    1.0011    5.9533 N   0  0  2  0  0  3           0  0  0
  -14.8633    0.8318    5.6543 C   0  0  0  0  0  4           0  0  0
   -8.5932    1.4120    6.6715 C   0  0  0  0  0  4           0  0  0
   -7.0761    0.6240    5.2832 C   0  0  0  0  0  4           0  0  0
  -12.0617    0.9428    5.8551 C   0  0  0  0  0  4           0  0  0
   -8.4553    0.7443    5.4947 C   0  0  0  0  0  4           0  0  0
  -14.0881   -0.1806    5.0959 C   0  0  0  0  0  4           0  0  0
  -14.2574    1.8984    6.3128 C   0  0  0  0  0  4           0  0  0
  -12.6945   -0.1249    5.1967 C   0  0  0  0  0  4           0  0  0
  -12.8640    1.9530    6.4125 C   0  0  0  0  0  4           0  0  0
   -9.9581    1.6099    7.0250 C   0  0  0  0  0  4           0  0  0
   -9.7690    0.4555    4.9861 C   0  0  0  0  0  4           0  0  0
   -6.3442   -0.0000    4.1907 C   0  0  0  0  0  4           0  0  0
   -4.8306    0.0000    4.2191 C   0  0  0  0  0  4           0  0  0
   -4.2380   -0.0000    2.8129 C   0  0  0  0  0  4           0  0  0
   -2.7117    0.0000    2.8129 C   0  0  0  0  0  4           0  0  0
   -2.1190   -0.0000    1.4064 C   0  0  0  0  0  4           0  0  0
   -0.5927    0.0000    1.4064 C   0  0  0  0  0  4           0  0  0
    0.0000   -0.0000    0.0000 C   0  0  0  0  0  4           0  0  0
    1.5260    0.0000    0.0000 C   0  0  0  0  0  4           0  0  0
    2.1188    0.0000   -1.4064 C   0  0  0  0  0  4           0  0  0
    3.6450    0.0000   -1.4064 C   0  0  0  0  0  4           0  0  0
    4.2378    0.0000   -2.8129 C   0  0  0  0  0  4           0  0  0
    5.7640    0.0000   -2.8129 C   0  0  0  0  0  4           0  0  0
    6.3567    0.0000   -4.2193 C   0  0  0  0  0  4           0  0  0
    7.8830    0.0000   -4.2193 C   0  0  0  0  0  4           0  0  0
    8.4757    0.0000   -5.6258 C   0  0  0  0  0  4           0  0  0
   10.0019    0.0000   -5.6258 C   0  0  0  0  0  4           0  0  0
   10.5947    0.0000   -7.0322 C   0  0  0  0  0  4           0  0  0
   12.1162    0.0000   -7.0310 C   0  0  0  0  0  4           0  0  0
  1  8  1  0     0  0
  2 17  2  0     0  0
  3 18  2  0     0  0
  4 19  2  0     0  0
  5  6  1  0     0  0
  5  9  1  0     0  0
  6 10  2  0     0  0
  7 11  1  0     0  0
  7 17  1  0     0  0
  7 18  1  0     0  0
  8 13  2  0     0  0
  8 14  1  0     0  0
  9 12  2  0     0  0
  9 17  1  0     0  0
 10 12  1  0     0  0
 10 19  1  0     0  0
 11 15  2  0     0  0
 11 16  1  0     0  0
 12 18  1  0     0  0
 13 15  1  0     0  0
 14 16  2  0     0  0
 19 20  1  0     0  0
 20 21  1  0     0  0
 21 22  1  0     0  0
 22 23  1  0     0  0
 23 24  1  0     0  0
 24 25  1  0     0  0
 25 26  1  0     0  0
 26 27  1  0     0  0
 27 28  1  0     0  0
 28 29  1  0     0  0
 29 30  1  0     0  0
 30 31  1  0     0  0
 31 32  1  0     0  0
 32 33  1  0     0  0
 33 34  1  0     0  0
 34 35  1  0     0  0
 35 36  1  0     0  0
M  END
> <standard_type>
IC50

> <# Confs.>
25

> <canonical_smiles>
ClC1=CC=C(N2C(C(C(C(CCCCCCCCCCCCCCCCC)=O)=NN3)=C3C2=O)=O)C=C1

> <standard_relation>
=

> <predicted_activity_value>
6.6777807052660805

> <actual_activity_value>
6.769551078621726

> <Compound>
1

> <publication_ID>
Ma_2018

> <standard_units>
nM

> hash
1119249693851212379

$$$$
1_
XXILIB    08252103493D 0   0.00000     0.00000

 36 38  0     1  0            999 V2000
   -2.8229   10.3233    9.6781 Cl  0  0  0  0  0  1           0  0  0
   -6.8058    6.6620    5.5189 O   0  0  0  0  0  2           0  0  0
   -3.1717    4.0620    6.9777 O   0  0  0  0  0  2           0  0  0
   -3.3754    1.1783    5.6892 O   0  0  0  0  0  2           0  0  0
   -6.8275    3.6961    4.3432 N   0  0  0  0  0  3           0  0  0
   -6.3286    2.4461    4.1900 N   0  0  0  0  0  3           0  0  0
   -4.8344    5.7149    6.4895 N   0  0  2  0  0  3           0  0  0
   -3.4027    8.9904    8.7555 C   0  0  0  0  0  4           0  0  0
   -6.0625    4.4461    5.1570 C   0  0  0  0  0  4           0  0  0
   -5.2058    2.4285    4.9440 C   0  0  0  0  0  4           0  0  0
   -4.3512    6.8148    7.2493 C   0  0  0  0  0  4           0  0  0
   -5.0200    3.6718    5.5612 C   0  0  0  0  0  4           0  0  0
   -3.1492    7.6897    9.1818 C   0  0  0  0  0  4           0  0  0
   -4.1229    9.2186    7.5861 C   0  0  0  0  0  4           0  0  0
   -3.6209    6.6080    8.4315 C   0  0  0  0  0  4           0  0  0
   -4.5942    8.1362    6.8372 C   0  0  0  0  0  4           0  0  0
   -6.0084    5.7577    5.7081 C   0  0  0  0  0  4           0  0  0
   -4.1905    4.4568    6.4351 C   0  0  0  0  0  4           0  0  0
   -4.4009    1.2175    5.0097 C   0  0  0  0  0  4           0  0  0
   -4.8306    0.0000    4.2191 C   0  0  0  0  0  4           0  0  0
   -4.2380    0.0000    2.8129 C   0  0  0  0  0  4           0  0  0
   -2.7117    0.0000    2.8129 C   0  0  0  0  0  4           0  0  0
   -2.1190    0.0000    1.4064 C   0  0  0  0  0  4           0  0  0
   -0.5927    0.0000    1.4064 C   0  0  0  0  0  4           0  0  0
    0.0000    0.0000    0.0000 C   0  0  0  0  0  4           0  0  0
    1.5260    0.0000    0.0000 C   0  0  0  0  0  4           0  0  0
    2.1188    0.0000   -1.4064 C   0  0  0  0  0  4           0  0  0
    3.6450    0.0000   -1.4064 C   0  0  0  0  0  4           0  0  0
    4.2378    0.0000   -2.8129 C   0  0  0  0  0  4           0  0  0
    5.7640    0.0000   -2.8129 C   0  0  0  0  0  4           0  0  0
    6.3567    0.0000   -4.2193 C   0  0  0  0  0  4           0  0  0
    7.8830    0.0000   -4.2193 C   0  0  0  0  0  4           0  0  0
    8.4757    0.0000   -5.6258 C   0  0  0  0  0  4           0  0  0
   10.0019    0.0000   -5.6258 C   0  0  0  0  0  4           0  0  0
   10.5947    0.0000   -7.0322 C   0  0  0  0  0  4           0  0  0
   12.1162    0.0000   -7.0310 C   0  0  0  0  0  4           0  0  0
  1  8  1  0     0  0
  2 17  2  0     0  0
  3 18  2  0     0  0
  4 19  2  0     0  0
  5  6  1  0     0  0
  5  9  1  0     0  0
  6 10  2  0     0  0
  7 11  1  0     0  0
  7 17  1  0     0  0
  7 18  1  0     0  0
  8 13  2  0     0  0
  8 14  1  0     0  0
  9 12  2  0     0  0
  9 17  1  0     0  0
 10 12  1  0     0  0
 10 19  1  0     0  0
 11 15  2  0     0  0
 11 16  1  0     0  0
 12 18  1  0     0  0
 13 15  1  0     0  0
 14 16  2  0     0  0
 19 20  1  0     0  0
 20 21  1  0     0  0
 21 22  1  0     0  0
 22 23  1  0     0  0
 23 24  1  0     0  0
 24 25  1  0     0  0
 25 26  1  0     0  0
 26 27  1  0     0  0
 27 28  1  0     0  0
 28 29  1  0     0  0
 29 30  1  0     0  0
 30 31  1  0     0  0
 31 32  1  0     0  0
 32 33  1  0     0  0
 33 34  1  0     0  0
 34 35  1  0     0  0
 35 36  1  0     0  0
M  END
> <standard_type>
IC50

> <# Confs.>
25

> <canonical_smiles>
ClC1=CC=C(N2C(C(C(C(CCCCCCCCCCCCCCCCC)=O)=NN3)=C3C2=O)=O)C=C1

> <standard_relation>
=

> <predicted_activity_value>
6.6777807052660805

> <actual_activity_value>
6.769551078621726

> <Compound>
1

> <publication_ID>
Ma_2018

> <standard_units>
nM

> hash
1119249693851212379

$$$$
1_
XXILIB    08252103493D 0   0.00000     0.00000

 36 38  0     1  0            999 V2000
   -2.9349  -10.2556    9.8433 Cl  0  0  0  0  0  1           0  0  0
   -6.8819   -6.6160    5.6312 O   0  0  0  0  0  2           0  0  0
   -3.1981   -4.0460    7.0166 O   0  0  0  0  0  2           0  0  0
   -3.3754   -1.1783    5.6892 O   0  0  0  0  0  2           0  0  0
   -6.8580   -3.6777    4.3881 N   0  0  0  0  0  3           0  0  0
   -6.3417   -2.4382    4.2095 N   0  0  0  0  0  3           0  0  0
   -4.8924   -5.6798    6.5751 N   0  0  2  0  0  3           0  0  0
   -3.5005   -8.9313    8.8998 C   0  0  0  0  0  4           0  0  0
   -6.1034   -4.4213    5.2174 C   0  0  0  0  0  4           0  0  0
   -5.2193   -2.4204    4.9638 C   0  0  0  0  0  4           0  0  0
   -4.4250   -6.7703    7.3580 C   0  0  0  0  0  4           0  0  0
   -5.0488   -3.6544    5.6038 C   0  0  0  0  0  4           0  0  0
   -2.5909   -8.0271    8.3586 C   0  0  0  0  0  4           0  0  0
   -4.8660   -8.7695    8.6817 C   0  0  0  0  0  4           0  0  0
   -3.0517   -6.9520    7.5923 C   0  0  0  0  0  4           0  0  0
   -5.3253   -7.6944    7.9150 C   0  0  0  0  0  4           0  0  0
   -6.0687   -5.7213    5.7970 C   0  0  0  0  0  4           0  0  0
   -4.2281   -4.4340    6.4905 C   0  0  0  0  0  4           0  0  0
   -4.4009   -1.2175    5.0097 C   0  0  0  0  0  4           0  0  0
   -4.8306   -0.0000    4.2191 C   0  0  0  0  0  4           0  0  0
   -4.2380   -0.0000    2.8129 C   0  0  0  0  0  4           0  0  0
   -2.7117   -0.0000    2.8129 C   0  0  0  0  0  4           0  0  0
   -2.1190   -0.0000    1.4064 C   0  0  0  0  0  4           0  0  0
   -0.5927    0.0000    1.4064 C   0  0  0  0  0  4           0  0  0
    0.0000    0.0000    0.0000 C   0  0  0  0  0  4           0  0  0
    1.5260    0.0000    0.0000 C   0  0  0  0  0  4           0  0  0
    2.1188    0.0000   -1.4064 C   0  0  0  0  0  4           0  0  0
    3.6450    0.0000   -1.4064 C   0  0  0  0  0  4           0  0  0
    4.2378    0.0000   -2.8129 C   0  0  0  0  0  4           0  0  0
    5.7640    0.0000   -2.8129 C   0  0  0  0  0  4           0  0  0
    6.3567    0.0000   -4.2193 C   0  0  0  0  0  4           0  0  0
    7.8830    0.0000   -4.2193 C   0  0  0  0  0  4           0  0  0
    8.4757    0.0000   -5.6258 C   0  0  0  0  0  4           0  0  0
   10.0019    0.0000   -5.6258 C   0  0  0  0  0  4           0  0  0
   10.5947    0.0000   -7.0322 C   0  0  0  0  0  4           0  0  0
   12.1162    0.0000   -7.0310 C   0  0  0  0  0  4           0  0  0
  1  8  1  0     0  0
  2 17  2  0     0  0
  3 18  2  0     0  0
  4 19  2  0     0  0
  5  6  1  0     0  0
  5  9  1  0     0  0
  6 10  2  0     0  0
  7 11  1  0     0  0
  7 17  1  0     0  0
  7 18  1  0     0  0
  8 13  2  0     0  0
  8 14  1  0     0  0
  9 12  2  0     0  0
  9 17  1  0     0  0
 10 12  1  0     0  0
 10 19  1  0     0  0
 11 15  2  0     0  0
 11 16  1  0     0  0
 12 18  1  0     0  0
 13 15  1  0     0  0
 14 16  2  0     0  0
 19 20  1  0     0  0
 20 21  1  0     0  0
 21 22  1  0     0  0
 22 23  1  0     0  0
 23 24  1  0     0  0
 24 25  1  0     0  0
 25 26  1  0     0  0
 26 27  1  0     0  0
 27 28  1  0     0  0
 28 29  1  0     0  0
 29 30  1  0     0  0
 30 31  1  0     0  0
 31 32  1  0     0  0
 32 33  1  0     0  0
 33 34  1  0     0  0
 34 35  1  0     0  0
 35 36  1  0     0  0
M  END
> <standard_type>
IC50

> <# Confs.>
25

> <canonical_smiles>
ClC1=CC=C(N2C(C(C(C(CCCCCCCCCCCCCCCCC)=O)=NN3)=C3C2=O)=O)C=C1

> <standard_relation>
=

> <predicted_activity_value>
6.6777807052660805

> <actual_activity_value>
6.769551078621726

> <Compound>
1

> <publication_ID>
Ma_2018

> <standard_units>
nM

> hash
1119249693851212379

$$$$
1_
XXILIB    08252103493D 0   0.00000     0.00000

 36 38  0     1  0            999 V2000
   -1.5093   -8.4957   11.7773 Cl  0  0  0  0  0  1           0  0  0
   -3.4821   -2.0232   10.8570 O   0  0  0  0  0  2           0  0  0
   -3.3238   -4.2742    6.7336 O   0  0  0  0  0  2           0  0  0
   -4.1612   -2.2750    4.4272 O   0  0  0  0  0  2           0  0  0
   -4.3105   -0.1832    8.3857 N   0  0  0  0  0  3           0  0  0
   -4.5343    0.0580    7.0717 N   0  0  0  0  0  3           0  0  0
   -3.2664   -3.5265    9.0079 N   0  0  2  0  0  3           0  0  0
   -2.0156   -7.0581   10.9767 C   0  0  0  0  0  4           0  0  0
   -3.9164   -1.4509    8.6036 C   0  0  0  0  0  4           0  0  0
   -4.2649   -1.1153    6.4552 C   0  0  0  0  0  4           0  0  0
   -2.8441   -4.7113    9.6699 C   0  0  0  0  0  4           0  0  0
   -3.8771   -2.0767    7.3968 C   0  0  0  0  0  4           0  0  0
   -1.6062   -6.8119    9.6692 C   0  0  0  0  0  4           0  0  0
   -2.8325   -6.1468   11.6404 C   0  0  0  0  0  4           0  0  0
   -2.0183   -5.6440    9.0200 C   0  0  0  0  0  4           0  0  0
   -3.2441   -4.9797   10.9901 C   0  0  0  0  0  4           0  0  0
   -3.5398   -2.3125    9.6728 C   0  0  0  0  0  4           0  0  0
   -3.4591   -3.4361    7.6096 C   0  0  0  0  0  4           0  0  0
   -4.4009   -1.2175    5.0097 C   0  0  0  0  0  4           0  0  0
   -4.8306   -0.0000    4.2191 C   0  0  0  0  0  4           0  0  0
   -4.2380   -0.0000    2.8129 C   0  0  0  0  0  4           0  0  0
   -2.7117   -0.0000    2.8129 C   0  0  0  0  0  4           0  0  0
   -2.1190   -0.0000    1.4064 C   0  0  0  0  0  4           0  0  0
   -0.5927    0.0000    1.4064 C   0  0  0  0  0  4           0  0  0
    0.0000    0.0000    0.0000 C   0  0  0  0  0  4           0  0  0
    1.5260    0.0000    0.0000 C   0  0  0  0  0  4           0  0  0
    2.1188    0.0000   -1.4064 C   0  0  0  0  0  4           0  0  0
    3.6450    0.0000   -1.4064 C   0  0  0  0  0  4           0  0  0
    4.2378    0.0000   -2.8129 C   0  0  0  0  0  4           0  0  0
    5.7640    0.0000   -2.8129 C   0  0  0  0  0  4           0  0  0
    6.3567    0.0000   -4.2193 C   0  0  0  0  0  4           0  0  0
    7.8830    0.0000   -4.2193 C   0  0  0  0  0  4           0  0  0
    8.4757    0.0000   -5.6258 C   0  0  0  0  0  4           0  0  0
   10.0019    0.0000   -5.6258 C   0  0  0  0  0  4           0  0  0
   10.5947    0.0000   -7.0322 C   0  0  0  0  0  4           0  0  0
   12.1162    0.0000   -7.0310 C   0  0  0  0  0  4           0  0  0
  1  8  1  0     0  0
  2 17  2  0     0  0
  3 18  2  0     0  0
  4 19  2  0     0  0
  5  6  1  0     0  0
  5  9  1  0     0  0
  6 10  2  0     0  0
  7 11  1  0     0  0
  7 17  1  0     0  0
  7 18  1  0     0  0
  8 13  2  0     0  0
  8 14  1  0     0  0
  9 12  2  0     0  0
  9 17  1  0     0  0
 10 12  1  0     0  0
 10 19  1  0     0  0
 11 15  2  0     0  0
 11 16  1  0     0  0
 12 18  1  0     0  0
 13 15  1  0     0  0
 14 16  2  0     0  0
 19 20  1  0     0  0
 20 21  1  0     0  0
 21 22  1  0     0  0
 22 23  1  0     0  0
 23 24  1  0     0  0
 24 25  1  0     0  0
 25 26  1  0     0  0
 26 27  1  0     0  0
 27 28  1  0     0  0
 28 29  1  0     0  0
 29 30  1  0     0  0
 30 31  1  0     0  0
 31 32  1  0     0  0
 32 33  1  0     0  0
 33 34  1  0     0  0
 34 35  1  0     0  0
 35 36  1  0     0  0
M  END
> <standard_type>
IC50

> <# Confs.>
25

> <canonical_smiles>
ClC1=CC=C(N2C(C(C(C(CCCCCCCCCCCCCCCCC)=O)=NN3)=C3C2=O)=O)C=C1

> <standard_relation>
=

> <predicted_activity_value>
6.6777807052660805

> <actual_activity_value>
6.769551078621726

> <Compound>
1

> <publication_ID>
Ma_2018

> <standard_units>
nM

> hash
1119249693851212379

$$$$
1_
XXILIB    08252103493D 0   0.00000     0.00000

 36 38  0     1  0            999 V2000
   -1.7080    8.5523   11.7982 Cl  0  0  0  0  0  1           0  0  0
   -3.6191    2.0622   10.8714 O   0  0  0  0  0  2           0  0  0
   -3.3712    4.2877    6.7385 O   0  0  0  0  0  2           0  0  0
   -4.1612    2.2750    4.4272 O   0  0  0  0  0  2           0  0  0
   -4.3653    0.1988    8.3915 N   0  0  0  0  0  3           0  0  0
   -4.5580   -0.0513    7.0742 N   0  0  0  0  0  3           0  0  0
   -3.3709    3.5562    9.0189 N   0  0  2  0  0  3           0  0  0
   -2.1907    7.1080   10.9951 C   0  0  0  0  0  4           0  0  0
   -3.9902    1.4719    8.6114 C   0  0  0  0  0  4           0  0  0
   -4.2891    1.1222    6.4577 C   0  0  0  0  0  4           0  0  0
   -2.9768    4.7491    9.6838 C   0  0  0  0  0  4           0  0  0
   -3.9290    2.0915    7.4022 C   0  0  0  0  0  4           0  0  0
   -2.9110    7.1833    9.8063 C   0  0  0  0  0  4           0  0  0
   -1.8588    5.8697   11.5380 C   0  0  0  0  0  4           0  0  0
   -3.3023    6.0094    9.1550 C   0  0  0  0  0  4           0  0  0
   -2.2502    4.6968   10.8856 C   0  0  0  0  0  4           0  0  0
   -3.6484    2.3434    9.6842 C   0  0  0  0  0  4           0  0  0
   -3.5269    3.4554    7.6167 C   0  0  0  0  0  4           0  0  0
   -4.4009    1.2175    5.0097 C   0  0  0  0  0  4           0  0  0
   -4.8306    0.0000    4.2191 C   0  0  0  0  0  4           0  0  0
   -4.2380    0.0000    2.8129 C   0  0  0  0  0  4           0  0  0
   -2.7117    0.0000    2.8129 C   0  0  0  0  0  4           0  0  0
   -2.1190    0.0000    1.4064 C   0  0  0  0  0  4           0  0  0
   -0.5927    0.0000    1.4064 C   0  0  0  0  0  4           0  0  0
    0.0000    0.0000    0.0000 C   0  0  0  0  0  4           0  0  0
    1.5260    0.0000    0.0000 C   0  0  0  0  0  4           0  0  0
    2.1188    0.0000   -1.4064 C   0  0  0  0  0  4           0  0  0
    3.6450    0.0000   -1.4064 C   0  0  0  0  0  4           0  0  0
    4.2378    0.0000   -2.8129 C   0  0  0  0  0  4           0  0  0
    5.7640    0.0000   -2.8129 C   0  0  0  0  0  4           0  0  0
    6.3567    0.0000   -4.2193 C   0  0  0  0  0  4           0  0  0
    7.8830    0.0000   -4.2193 C   0  0  0  0  0  4           0  0  0
    8.4757    0.0000   -5.6258 C   0  0  0  0  0  4           0  0  0
   10.0019    0.0000   -5.6258 C   0  0  0  0  0  4           0  0  0
   10.5947    0.0000   -7.0322 C   0  0  0  0  0  4           0  0  0
   12.1162    0.0000   -7.0310 C   0  0  0  0  0  4           0  0  0
  1  8  1  0     0  0
  2 17  2  0     0  0
  3 18  2  0     0  0
  4 19  2  0     0  0
  5  6  1  0     0  0
  5  9  1  0     0  0
  6 10  2  0     0  0
  7 11  1  0     0  0
  7 17  1  0     0  0
  7 18  1  0     0  0
  8 13  2  0     0  0
  8 14  1  0     0  0
  9 12  2  0     0  0
  9 17  1  0     0  0
 10 12  1  0     0  0
 10 19  1  0     0  0
 11 15  2  0     0  0
 11 16  1  0     0  0
 12 18  1  0     0  0
 13 15  1  0     0  0
 14 16  2  0     0  0
 19 20  1  0     0  0
 20 21  1  0     0  0
 21 22  1  0     0  0
 22 23  1  0     0  0
 23 24  1  0     0  0
 24 25  1  0     0  0
 25 26  1  0     0  0
 26 27  1  0     0  0
 27 28  1  0     0  0
 28 29  1  0     0  0
 29 30  1  0     0  0
 30 31  1  0     0  0
 31 32  1  0     0  0
 32 33  1  0     0  0
 33 34  1  0     0  0
 34 35  1  0     0  0
 35 36  1  0     0  0
M  END
> <standard_type>
IC50

> <# Confs.>
25

> <canonical_smiles>
ClC1=CC=C(N2C(C(C(C(CCCCCCCCCCCCCCCCC)=O)=NN3)=C3C2=O)=O)C=C1

> <standard_relation>
=

> <predicted_activity_value>
6.6777807052660805

> <actual_activity_value>
6.769551078621726

> <Compound>
1

> <publication_ID>
Ma_2018

> <standard_units>
nM

> hash
1119249693851212379

$$$$
1_
XXILIB    08252103493D 0   0.00000     0.00000

 36 38  0     1  0            999 V2000
   -0.6800   -8.4077   11.4638 Cl  0  0  0  0  0  1           0  0  0
   -1.3136   -1.7523   10.0956 O   0  0  0  0  0  2           0  0  0
   -3.4336   -4.2960    6.7595 O   0  0  0  0  0  2           0  0  0
   -4.6802   -2.3448    4.6018 O   0  0  0  0  0  2           0  0  0
   -2.6587    0.0306    7.8172 N   0  0  0  0  0  3           0  0  0
   -3.3537    0.2132    6.6690 N   0  0  0  0  0  3           0  0  0
   -2.2512   -3.4057    8.6421 N   0  0  2  0  0  3           0  0  0
   -1.1338   -6.9622   10.6462 C   0  0  0  0  0  4           0  0  0
   -2.5133   -1.2734    8.1145 C   0  0  0  0  0  4           0  0  0
   -3.6481   -1.0360    6.2420 C   0  0  0  0  0  4           0  0  0
   -1.8747   -4.6010    9.3130 C   0  0  0  0  0  4           0  0  0
   -3.1323   -1.9844    7.1342 C   0  0  0  0  0  4           0  0  0
   -2.3012   -6.9316    9.8884 C   0  0  0  0  0  4           0  0  0
   -0.3311   -5.8290   10.7458 C   0  0  0  0  0  4           0  0  0
   -2.6686   -5.7568    9.2251 C   0  0  0  0  0  4           0  0  0
   -0.7000   -4.6550   10.0824 C   0  0  0  0  0  4           0  0  0
   -1.9306   -2.1124    9.1062 C   0  0  0  0  0  4           0  0  0
   -2.9894   -3.3831    7.4359 C   0  0  0  0  0  4           0  0  0
   -4.4009   -1.2175    5.0097 C   0  0  0  0  0  4           0  0  0
   -4.8306   -0.0000    4.2191 C   0  0  0  0  0  4           0  0  0
   -4.2380   -0.0000    2.8129 C   0  0  0  0  0  4           0  0  0
   -2.7117   -0.0000    2.8129 C   0  0  0  0  0  4           0  0  0
   -2.1190   -0.0000    1.4064 C   0  0  0  0  0  4           0  0  0
   -0.5927    0.0000    1.4064 C   0  0  0  0  0  4           0  0  0
    0.0000    0.0000    0.0000 C   0  0  0  0  0  4           0  0  0
    1.5260    0.0000    0.0000 C   0  0  0  0  0  4           0  0  0
    2.1188    0.0000   -1.4064 C   0  0  0  0  0  4           0  0  0
    3.6450    0.0000   -1.4064 C   0  0  0  0  0  4           0  0  0
    4.2378    0.0000   -2.8129 C   0  0  0  0  0  4           0  0  0
    5.7640    0.0000   -2.8129 C   0  0  0  0  0  4           0  0  0
    6.3567    0.0000   -4.2193 C   0  0  0  0  0  4           0  0  0
    7.8830    0.0000   -4.2193 C   0  0  0  0  0  4           0  0  0
    8.4757    0.0000   -5.6258 C   0  0  0  0  0  4           0  0  0
   10.0019    0.0000   -5.6258 C   0  0  0  0  0  4           0  0  0
   10.5947    0.0000   -7.0322 C   0  0  0  0  0  4           0  0  0
   12.1162    0.0000   -7.0310 C   0  0  0  0  0  4           0  0  0
  1  8  1  0     0  0
  2 17  2  0     0  0
  3 18  2  0     0  0
  4 19  2  0     0  0
  5  6  1  0     0  0
  5  9  1  0     0  0
  6 10  2  0     0  0
  7 11  1  0     0  0
  7 17  1  0     0  0
  7 18  1  0     0  0
  8 13  2  0     0  0
  8 14  1  0     0  0
  9 12  2  0     0  0
  9 17  1  0     0  0
 10 12  1  0     0  0
 10 19  1  0     0  0
 11 15  2  0     0  0
 11 16  1  0     0  0
 12 18  1  0     0  0
 13 15  1  0     0  0
 14 16  2  0     0  0
 19 20  1  0     0  0
 20 21  1  0     0  0
 21 22  1  0     0  0
 22 23  1  0     0  0
 23 24  1  0     0  0
 24 25  1  0     0  0
 25 26  1  0     0  0
 26 27  1  0     0  0
 27 28  1  0     0  0
 28 29  1  0     0  0
 29 30  1  0     0  0
 30 31  1  0     0  0
 31 32  1  0     0  0
 32 33  1  0     0  0
 33 34  1  0     0  0
 34 35  1  0     0  0
 35 36  1  0     0  0
M  END
> <standard_type>
IC50

> <# Confs.>
25

> <canonical_smiles>
ClC1=CC=C(N2C(C(C(C(CCCCCCCCCCCCCCCCC)=O)=NN3)=C3C2=O)=O)C=C1

> <standard_relation>
=

> <predicted_activity_value>
6.6777807052660805

> <actual_activity_value>
6.769551078621726

> <Compound>
1

> <publication_ID>
Ma_2018

> <standard_units>
nM

> hash
1119249693851212379

$$$$
1_
XXILIB    08252103493D 0   0.00000     0.00000

 36 38  0     1  0            999 V2000
  -16.5825   -0.1038    5.7080 Cl  0  0  0  0  0  1           0  0  0
  -10.3896   -0.0716    8.5854 O   0  0  0  0  0  2           0  0  0
  -10.0036   -0.0248    3.9011 O   0  0  0  0  0  2           0  0  0
   -6.9384   -0.0000    3.1127 O   0  0  0  0  0  2           0  0  0
   -7.3647   -0.0286    7.5720 N   0  0  0  0  0  3           0  0  0
   -6.4029   -0.0124    6.6183 N   0  0  0  0  0  3           0  0  0
  -10.6496   -0.0546    6.2069 N   0  0  2  0  0  3           0  0  0
  -14.8670   -0.0915    5.8527 C   0  0  0  0  0  4           0  0  0
   -8.6001   -0.0385    7.0394 C   0  0  0  0  0  4           0  0  0
   -7.0792   -0.0127    5.4470 C   0  0  0  0  0  4           0  0  0
  -12.0661   -0.0694    6.0891 C   0  0  0  0  0  4           0  0  0
   -8.4589   -0.0272    5.6868 C   0  0  0  0  0  4           0  0  0
  -14.0837   -0.6818    4.8648 C   0  0  0  0  0  4           0  0  0
  -14.2695    0.5088    6.9576 C   0  0  0  0  0  4           0  0  0
  -12.6905   -0.6709    4.9835 C   0  0  0  0  0  4           0  0  0
  -12.8764    0.5193    7.0748 C   0  0  0  0  0  4           0  0  0
   -9.9659   -0.0567    7.4411 C   0  0  0  0  0  4           0  0  0
   -9.7711   -0.0354    5.0986 C   0  0  0  0  0  4           0  0  0
   -6.3442   -0.0000    4.1907 C   0  0  0  0  0  4           0  0  0
   -4.8306    0.0000    4.2191 C   0  0  0  0  0  4           0  0  0
   -4.2380   -0.0000    2.8129 C   0  0  0  0  0  4           0  0  0
   -2.7117    0.0000    2.8129 C   0  0  0  0  0  4           0  0  0
   -2.1190   -0.0000    1.4064 C   0  0  0  0  0  4           0  0  0
   -0.5927    0.0000    1.4064 C   0  0  0  0  0  4           0  0  0
    0.0000   -0.0000    0.0000 C   0  0  0  0  0  4           0  0  0
    1.5260    0.0000    0.0000 C   0  0  0  0  0  4           0  0  0
    2.1188    0.0000   -1.4064 C   0  0  0  0  0  4           0  0  0
    3.6450    0.0000   -1.4064 C   0  0  0  0  0  4           0  0  0
    4.2378    0.0000   -2.8129 C   0  0  0  0  0  4           0  0  0
    5.7640    0.0000   -2.8129 C   0  0  0  0  0  4           0  0  0
    6.3567    0.0000   -4.2193 C   0  0  0  0  0  4           0  0  0
    7.8830    0.0000   -4.2193 C   0  0  0  0  0  4           0  0  0
    8.4757    0.0000   -5.6258 C   0  0  0  0  0  4           0  0  0
   10.0019    0.0000   -5.6258 C   0  0  0  0  0  4           0  0  0
   10.5947    0.0000   -7.0322 C   0  0  0  0  0  4           0  0  0
   10.1775    1.2147   -7.8480 C   0  0  0  0  0  4           0  0  0
  1  8  1  0     0  0
  2 17  2  0     0  0
  3 18  2  0     0  0
  4 19  2  0     0  0
  5  6  1  0     0  0
  5  9  1  0     0  0
  6 10  2  0     0  0
  7 11  1  0     0  0
  7 17  1  0     0  0
  7 18  1  0     0  0
  8 13  2  0     0  0
  8 14  1  0     0  0
  9 12  2  0     0  0
  9 17  1  0     0  0
 10 12  1  0     0  0
 10 19  1  0     0  0
 11 15  2  0     0  0
 11 16  1  0     0  0
 12 18  1  0     0  0
 13 15  1  0     0  0
 14 16  2  0     0  0
 19 20  1  0     0  0
 20 21  1  0     0  0
 21 22  1  0     0  0
 22 23  1  0     0  0
 23 24  1  0     0  0
 24 25  1  0     0  0
 25 26  1  0     0  0
 26 27  1  0     0  0
 27 28  1  0     0  0
 28 29  1  0     0  0
 29 30  1  0     0  0
 30 31  1  0     0  0
 31 32  1  0     0  0
 32 33  1  0     0  0
 33 34  1  0     0  0
 34 35  1  0     0  0
 35 36  1  0     0  0
M  END
> <standard_type>
IC50

> <# Confs.>
25

> <canonical_smiles>
ClC1=CC=C(N2C(C(C(C(CCCCCCCCCCCCCCCCC)=O)=NN3)=C3C2=O)=O)C=C1

> <standard_relation>
=

> <predicted_activity_value>
6.6777807052660805

> <actual_activity_value>
6.769551078621726

> <Compound>
1

> <publication_ID>
Ma_2018

> <standard_units>
nM

> hash
1119249693851212379

$$$$
1_
XXILIB    08252103493D 0   0.00000     0.00000

 36 38  0     1  0            999 V2000
    1.3844   11.3629   13.2941 Cl  0  0  0  0  0  1           0  0  0
   -1.8216    5.4397   12.1964 O   0  0  0  0  0  2           0  0  0
    0.6246    6.6837    8.3803 O   0  0  0  0  0  2           0  0  0
    0.2285    4.4903    6.1332 O   0  0  0  0  0  2           0  0  0
   -2.0715    3.3450    9.8028 N   0  0  0  0  0  3           0  0  0
   -1.8098    2.8901    8.5540 N   0  0  0  0  0  3           0  0  0
   -0.4601    6.4386   10.5012 N   0  0  2  0  0  3           0  0  0
    0.8508    9.9400   12.4849 C   0  0  0  0  0  4           0  0  0
   -1.4553    4.5150   10.0506 C   0  0  0  0  0  4           0  0  0
   -0.9961    3.8239    8.0106 C   0  0  0  0  0  4           0  0  0
   -0.0208    7.6160   11.1655 C   0  0  0  0  0  4           0  0  0
   -0.7587    4.8515    8.9320 C   0  0  0  0  0  4           0  0  0
    1.6594    9.3470   11.5194 C   0  0  0  0  0  4           0  0  0
   -0.3881    9.3880   12.7991 C   0  0  0  0  0  4           0  0  0
    1.2248    8.1913   10.8631 C   0  0  0  0  0  4           0  0  0
   -0.8212    8.2323   12.1425 C   0  0  0  0  0  4           0  0  0
   -1.3115    5.4790   11.0885 C   0  0  0  0  0  4           0  0  0
   -0.0903    6.1007    9.1785 C   0  0  0  0  0  4           0  0  0
   -0.5128    3.6536    6.6483 C   0  0  0  0  0  4           0  0  0
   -0.9425    2.4360    5.8578 C   0  0  0  0  0  4           0  0  0
   -0.3498    2.4360    4.4515 C   0  0  0  0  0  4           0  0  0
   -0.7676    1.2180    3.6322 C   0  0  0  0  0  4           0  0  0
   -0.1749    1.2180    2.2258 C   0  0  0  0  0  4           0  0  0
   -0.5927    0.0000    1.4064 C   0  0  0  0  0  4           0  0  0
    0.0000    0.0000    0.0000 C   0  0  0  0  0  4           0  0  0
    1.5260    0.0000    0.0000 C   0  0  0  0  0  4           0  0  0
    2.1188    0.0000   -1.4064 C   0  0  0  0  0  4           0  0  0
    3.6450    0.0000   -1.4064 C   0  0  0  0  0  4           0  0  0
    4.2378    0.0000   -2.8129 C   0  0  0  0  0  4           0  0  0
    5.7640    0.0000   -2.8129 C   0  0  0  0  0  4           0  0  0
    6.3567    0.0000   -4.2193 C   0  0  0  0  0  4           0  0  0
    7.8830    0.0000   -4.2193 C   0  0  0  0  0  4           0  0  0
    8.4757    0.0000   -5.6258 C   0  0  0  0  0  4           0  0  0
   10.0019    0.0000   -5.6258 C   0  0  0  0  0  4           0  0  0
   10.5947    0.0000   -7.0322 C   0  0  0  0  0  4           0  0  0
   12.1162    0.0000   -7.0310 C   0  0  0  0  0  4           0  0  0
  1  8  1  0     0  0
  2 17  2  0     0  0
  3 18  2  0     0  0
  4 19  2  0     0  0
  5  6  1  0     0  0
  5  9  1  0     0  0
  6 10  2  0     0  0
  7 11  1  0     0  0
  7 17  1  0     0  0
  7 18  1  0     0  0
  8 13  2  0     0  0
  8 14  1  0     0  0
  9 12  2  0     0  0
  9 17  1  0     0  0
 10 12  1  0     0  0
 10 19  1  0     0  0
 11 15  2  0     0  0
 11 16  1  0     0  0
 12 18  1  0     0  0
 13 15  1  0     0  0
 14 16  2  0     0  0
 19 20  1  0     0  0
 20 21  1  0     0  0
 21 22  1  0     0  0
 22 23  1  0     0  0
 23 24  1  0     0  0
 24 25  1  0     0  0
 25 26  1  0     0  0
 26 27  1  0     0  0
 27 28  1  0     0  0
 28 29  1  0     0  0
 29 30  1  0     0  0
 30 31  1  0     0  0
 31 32  1  0     0  0
 32 33  1  0     0  0
 33 34  1  0     0  0
 34 35  1  0     0  0
 35 36  1  0     0  0
M  END
> <standard_type>
IC50

> <# Confs.>
25

> <canonical_smiles>
ClC1=CC=C(N2C(C(C(C(CCCCCCCCCCCCCCCCC)=O)=NN3)=C3C2=O)=O)C=C1

> <standard_relation>
=

> <predicted_activity_value>
6.6777807052660805

> <actual_activity_value>
6.769551078621726

> <Compound>
1

> <publication_ID>
Ma_2018

> <standard_units>
nM

> hash
1119249693851212379

$$$$
1_
XXILIB    08252103493D 0   0.00000     0.00000

 36 38  0     1  0            999 V2000
  -16.5836   -0.1054    5.7217 Cl  0  0  0  0  0  1           0  0  0
  -10.3896   -0.0716    8.5854 O   0  0  0  0  0  2           0  0  0
  -10.0036   -0.0248    3.9011 O   0  0  0  0  0  2           0  0  0
   -6.9384   -0.0000    3.1127 O   0  0  0  0  0  2           0  0  0
   -7.3647   -0.0286    7.5720 N   0  0  0  0  0  3           0  0  0
   -6.4029   -0.0124    6.6183 N   0  0  0  0  0  3           0  0  0
  -10.6496   -0.0546    6.2069 N   0  0  2  0  0  3           0  0  0
  -14.8677   -0.0920    5.8605 C   0  0  0  0  0  4           0  0  0
   -8.6001   -0.0385    7.0394 C   0  0  0  0  0  4           0  0  0
   -7.0792   -0.0127    5.4470 C   0  0  0  0  0  4           0  0  0
  -12.0661   -0.0694    6.0891 C   0  0  0  0  0  4           0  0  0
   -8.4589   -0.0272    5.6868 C   0  0  0  0  0  4           0  0  0
  -14.0975    0.5252    4.8788 C   0  0  0  0  0  4           0  0  0
  -14.2566   -0.6990    6.9544 C   0  0  0  0  0  4           0  0  0
  -12.7039    0.5354    4.9930 C   0  0  0  0  0  4           0  0  0
  -12.8632   -0.6876    7.0675 C   0  0  0  0  0  4           0  0  0
   -9.9659   -0.0567    7.4411 C   0  0  0  0  0  4           0  0  0
   -9.7711   -0.0354    5.0986 C   0  0  0  0  0  4           0  0  0
   -6.3442   -0.0000    4.1907 C   0  0  0  0  0  4           0  0  0
   -4.8306    0.0000    4.2191 C   0  0  0  0  0  4           0  0  0
   -4.2380   -0.0000    2.8129 C   0  0  0  0  0  4           0  0  0
   -2.7117    0.0000    2.8129 C   0  0  0  0  0  4           0  0  0
   -2.1190   -0.0000    1.4064 C   0  0  0  0  0  4           0  0  0
   -0.5927    0.0000    1.4064 C   0  0  0  0  0  4           0  0  0
    0.0000   -0.0000    0.0000 C   0  0  0  0  0  4           0  0  0
    1.5260   -0.0000    0.0000 C   0  0  0  0  0  4           0  0  0
    2.1188    0.0000   -1.4064 C   0  0  0  0  0  4           0  0  0
    3.6450    0.0000   -1.4064 C   0  0  0  0  0  4           0  0  0
    4.2378   -1.2180   -0.7032 C   0  0  0  0  0  4           0  0  0
    5.7640   -1.2180   -0.7032 C   0  0  0  0  0  4           0  0  0
    6.3567   -2.4360    0.0000 C   0  0  0  0  0  4           0  0  0
    7.8830   -2.4360    0.0000 C   0  0  0  0  0  4           0  0  0
    8.4757   -3.6540    0.7032 C   0  0  0  0  0  4           0  0  0
   10.0019   -3.6540    0.7032 C   0  0  0  0  0  4           0  0  0
   10.5947   -4.8721    1.4064 C   0  0  0  0  0  4           0  0  0
   12.1162   -4.8710    1.4058 C   0  0  0  0  0  4           0  0  0
  1  8  1  0     0  0
  2 17  2  0     0  0
  3 18  2  0     0  0
  4 19  2  0     0  0
  5  6  1  0     0  0
  5  9  1  0     0  0
  6 10  2  0     0  0
  7 11  1  0     0  0
  7 17  1  0     0  0
  7 18  1  0     0  0
  8 13  2  0     0  0
  8 14  1  0     0  0
  9 12  2  0     0  0
  9 17  1  0     0  0
 10 12  1  0     0  0
 10 19  1  0     0  0
 11 15  2  0     0  0
 11 16  1  0     0  0
 12 18  1  0     0  0
 13 15  1  0     0  0
 14 16  2  0     0  0
 19 20  1  0     0  0
 20 21  1  0     0  0
 21 22  1  0     0  0
 22 23  1  0     0  0
 23 24  1  0     0  0
 24 25  1  0     0  0
 25 26  1  0     0  0
 26 27  1  0     0  0
 27 28  1  0     0  0
 28 29  1  0     0  0
 29 30  1  0     0  0
 30 31  1  0     0  0
 31 32  1  0     0  0
 32 33  1  0     0  0
 33 34  1  0     0  0
 34 35  1  0     0  0
 35 36  1  0     0  0
M  END
> <standard_type>
IC50

> <# Confs.>
25

> <canonical_smiles>
ClC1=CC=C(N2C(C(C(C(CCCCCCCCCCCCCCCCC)=O)=NN3)=C3C2=O)=O)C=C1

> <standard_relation>
=

> <predicted_activity_value>
6.6777807052660805

> <actual_activity_value>
6.769551078621726

> <Compound>
1

> <publication_ID>
Ma_2018

> <standard_units>
nM

> hash
1119249693851212379

$$$$
1_
XXILIB    08252103493D 0   0.00000     0.00000

 36 38  0     1  0            999 V2000
  -16.5836   -0.1054    5.7217 Cl  0  0  0  0  0  1           0  0  0
  -10.3896   -0.0716    8.5854 O   0  0  0  0  0  2           0  0  0
  -10.0036   -0.0248    3.9011 O   0  0  0  0  0  2           0  0  0
   -6.9384   -0.0000    3.1127 O   0  0  0  0  0  2           0  0  0
   -7.3647   -0.0286    7.5720 N   0  0  0  0  0  3           0  0  0
   -6.4029   -0.0124    6.6183 N   0  0  0  0  0  3           0  0  0
  -10.6496   -0.0546    6.2069 N   0  0  2  0  0  3           0  0  0
  -14.8677   -0.0920    5.8605 C   0  0  0  0  0  4           0  0  0
   -8.6001   -0.0385    7.0394 C   0  0  0  0  0  4           0  0  0
   -7.0792   -0.0127    5.4470 C   0  0  0  0  0  4           0  0  0
  -12.0661   -0.0694    6.0891 C   0  0  0  0  0  4           0  0  0
   -8.4589   -0.0272    5.6868 C   0  0  0  0  0  4           0  0  0
  -14.0975    0.5252    4.8788 C   0  0  0  0  0  4           0  0  0
  -14.2566   -0.6990    6.9544 C   0  0  0  0  0  4           0  0  0
  -12.7039    0.5354    4.9930 C   0  0  0  0  0  4           0  0  0
  -12.8632   -0.6876    7.0675 C   0  0  0  0  0  4           0  0  0
   -9.9659   -0.0567    7.4411 C   0  0  0  0  0  4           0  0  0
   -9.7711   -0.0354    5.0986 C   0  0  0  0  0  4           0  0  0
   -6.3442   -0.0000    4.1907 C   0  0  0  0  0  4           0  0  0
   -4.8306    0.0000    4.2191 C   0  0  0  0  0  4           0  0  0
   -4.2380   -0.0000    2.8129 C   0  0  0  0  0  4           0  0  0
   -2.7117    0.0000    2.8129 C   0  0  0  0  0  4           0  0  0
   -2.1190   -0.0000    1.4064 C   0  0  0  0  0  4           0  0  0
   -0.5927    0.0000    1.4064 C   0  0  0  0  0  4           0  0  0
    0.0000   -0.0000    0.0000 C   0  0  0  0  0  4           0  0  0
    1.5260   -0.0000   -0.0000 C   0  0  0  0  0  4           0  0  0
    2.1188    0.0000   -1.4064 C   0  0  0  0  0  4           0  0  0
    3.6450   -0.0000   -1.4064 C   0  0  0  0  0  4           0  0  0
    4.2378    0.0000   -2.8129 C   0  0  0  0  0  4           0  0  0
    3.8199    1.2180   -3.6322 C   0  0  0  0  0  4           0  0  0
    4.4127    1.2180   -5.0386 C   0  0  0  0  0  4           0  0  0
    3.9948    2.4360   -5.8580 C   0  0  0  0  0  4           0  0  0
    4.5876    2.4360   -7.2644 C   0  0  0  0  0  4           0  0  0
    4.1697    3.6540   -8.0837 C   0  0  0  0  0  4           0  0  0
    4.7625    3.6540   -9.4902 C   0  0  0  0  0  4           0  0  0
    4.3453    4.8687  -10.3060 C   0  0  0  0  0  4           0  0  0
  1  8  1  0     0  0
  2 17  2  0     0  0
  3 18  2  0     0  0
  4 19  2  0     0  0
  5  6  1  0     0  0
  5  9  1  0     0  0
  6 10  2  0     0  0
  7 11  1  0     0  0
  7 17  1  0     0  0
  7 18  1  0     0  0
  8 13  2  0     0  0
  8 14  1  0     0  0
  9 12  2  0     0  0
  9 17  1  0     0  0
 10 12  1  0     0  0
 10 19  1  0     0  0
 11 15  2  0     0  0
 11 16  1  0     0  0
 12 18  1  0     0  0
 13 15  1  0     0  0
 14 16  2  0     0  0
 19 20  1  0     0  0
 20 21  1  0     0  0
 21 22  1  0     0  0
 22 23  1  0     0  0
 23 24  1  0     0  0
 24 25  1  0     0  0
 25 26  1  0     0  0
 26 27  1  0     0  0
 27 28  1  0     0  0
 28 29  1  0     0  0
 29 30  1  0     0  0
 30 31  1  0     0  0
 31 32  1  0     0  0
 32 33  1  0     0  0
 33 34  1  0     0  0
 34 35  1  0     0  0
 35 36  1  0     0  0
M  END
> <standard_type>
IC50

> <# Confs.>
25

> <canonical_smiles>
ClC1=CC=C(N2C(C(C(C(CCCCCCCCCCCCCCCCC)=O)=NN3)=C3C2=O)=O)C=C1

> <standard_relation>
=

> <predicted_activity_value>
6.6777807052660805

> <actual_activity_value>
6.769551078621726

> <Compound>
1

> <publication_ID>
Ma_2018

> <standard_units>
nM

> hash
1119249693851212379

$$$$
1_
XXILIB    08252103493D 0   0.00000     0.00000

 36 38  0     1  0            999 V2000
  -16.5836   -0.1054    5.7217 Cl  0  0  0  0  0  1           0  0  0
  -10.3896   -0.0716    8.5854 O   0  0  0  0  0  2           0  0  0
  -10.0036   -0.0248    3.9011 O   0  0  0  0  0  2           0  0  0
   -6.9384   -0.0000    3.1127 O   0  0  0  0  0  2           0  0  0
   -7.3647   -0.0286    7.5720 N   0  0  0  0  0  3           0  0  0
   -6.4029   -0.0124    6.6183 N   0  0  0  0  0  3           0  0  0
  -10.6496   -0.0546    6.2069 N   0  0  2  0  0  3           0  0  0
  -14.8677   -0.0920    5.8605 C   0  0  0  0  0  4           0  0  0
   -8.6001   -0.0385    7.0394 C   0  0  0  0  0  4           0  0  0
   -7.0792   -0.0127    5.4470 C   0  0  0  0  0  4           0  0  0
  -12.0661   -0.0694    6.0891 C   0  0  0  0  0  4           0  0  0
   -8.4589   -0.0272    5.6868 C   0  0  0  0  0  4           0  0  0
  -14.0975    0.5252    4.8788 C   0  0  0  0  0  4           0  0  0
  -14.2566   -0.6990    6.9544 C   0  0  0  0  0  4           0  0  0
  -12.7039    0.5354    4.9930 C   0  0  0  0  0  4           0  0  0
  -12.8632   -0.6876    7.0675 C   0  0  0  0  0  4           0  0  0
   -9.9659   -0.0567    7.4411 C   0  0  0  0  0  4           0  0  0
   -9.7711   -0.0354    5.0986 C   0  0  0  0  0  4           0  0  0
   -6.3442   -0.0000    4.1907 C   0  0  0  0  0  4           0  0  0
   -4.8306    0.0000    4.2191 C   0  0  0  0  0  4           0  0  0
   -4.2380   -0.0000    2.8129 C   0  0  0  0  0  4           0  0  0
   -2.7117    0.0000    2.8129 C   0  0  0  0  0  4           0  0  0
   -2.1190   -0.0000    1.4064 C   0  0  0  0  0  4           0  0  0
   -0.5927    0.0000    1.4064 C   0  0  0  0  0  4           0  0  0
    0.0000   -0.0000    0.0000 C   0  0  0  0  0  4           0  0  0
    1.5260   -0.0000    0.0000 C   0  0  0  0  0  4           0  0  0
    2.1188    0.0000   -1.4064 C   0  0  0  0  0  4           0  0  0
    1.7009    1.2180   -2.2258 C   0  0  0  0  0  4           0  0  0
    2.2937    1.2180   -3.6322 C   0  0  0  0  0  4           0  0  0
    1.8759    2.4360   -4.4515 C   0  0  0  0  0  4           0  0  0
    2.4686    2.4360   -5.8580 C   0  0  0  0  0  4           0  0  0
    2.0508    3.6540   -6.6773 C   0  0  0  0  0  4           0  0  0
    2.6435    3.6540   -8.0837 C   0  0  0  0  0  4           0  0  0
    2.2257    4.8721   -8.9030 C   0  0  0  0  0  4           0  0  0
    2.8184    4.8721  -10.3095 C   0  0  0  0  0  4           0  0  0
    2.4012    6.0867  -11.1253 C   0  0  0  0  0  4           0  0  0
  1  8  1  0     0  0
  2 17  2  0     0  0
  3 18  2  0     0  0
  4 19  2  0     0  0
  5  6  1  0     0  0
  5  9  1  0     0  0
  6 10  2  0     0  0
  7 11  1  0     0  0
  7 17  1  0     0  0
  7 18  1  0     0  0
  8 13  2  0     0  0
  8 14  1  0     0  0
  9 12  2  0     0  0
  9 17  1  0     0  0
 10 12  1  0     0  0
 10 19  1  0     0  0
 11 15  2  0     0  0
 11 16  1  0     0  0
 12 18  1  0     0  0
 13 15  1  0     0  0
 14 16  2  0     0  0
 19 20  1  0     0  0
 20 21  1  0     0  0
 21 22  1  0     0  0
 22 23  1  0     0  0
 23 24  1  0     0  0
 24 25  1  0     0  0
 25 26  1  0     0  0
 26 27  1  0     0  0
 27 28  1  0     0  0
 28 29  1  0     0  0
 29 30  1  0     0  0
 30 31  1  0     0  0
 31 32  1  0     0  0
 32 33  1  0     0  0
 33 34  1  0     0  0
 34 35  1  0     0  0
 35 36  1  0     0  0
M  END
> <standard_type>
IC50

> <# Confs.>
25

> <canonical_smiles>
ClC1=CC=C(N2C(C(C(C(CCCCCCCCCCCCCCCCC)=O)=NN3)=C3C2=O)=O)C=C1

> <standard_relation>
=

> <predicted_activity_value>
6.6777807052660805

> <actual_activity_value>
6.769551078621726

> <Compound>
1

> <publication_ID>
Ma_2018

> <standard_units>
nM

> hash
1119249693851212379

$$$$
1_
XXILIB    08252103493D 0   0.00000     0.00000

 36 38  0     1  0            999 V2000
  -16.5836   -0.1054    5.7217 Cl  0  0  0  0  0  1           0  0  0
  -10.3896   -0.0716    8.5854 O   0  0  0  0  0  2           0  0  0
  -10.0036   -0.0248    3.9011 O   0  0  0  0  0  2           0  0  0
   -6.9384   -0.0000    3.1127 O   0  0  0  0  0  2           0  0  0
   -7.3647   -0.0286    7.5720 N   0  0  0  0  0  3           0  0  0
   -6.4029   -0.0124    6.6183 N   0  0  0  0  0  3           0  0  0
  -10.6496   -0.0546    6.2069 N   0  0  2  0  0  3           0  0  0
  -14.8677   -0.0920    5.8605 C   0  0  0  0  0  4           0  0  0
   -8.6001   -0.0385    7.0394 C   0  0  0  0  0  4           0  0  0
   -7.0792   -0.0127    5.4470 C   0  0  0  0  0  4           0  0  0
  -12.0661   -0.0694    6.0891 C   0  0  0  0  0  4           0  0  0
   -8.4589   -0.0272    5.6868 C   0  0  0  0  0  4           0  0  0
  -14.0975    0.5252    4.8788 C   0  0  0  0  0  4           0  0  0
  -14.2566   -0.6990    6.9544 C   0  0  0  0  0  4           0  0  0
  -12.7039    0.5354    4.9930 C   0  0  0  0  0  4           0  0  0
  -12.8632   -0.6876    7.0675 C   0  0  0  0  0  4           0  0  0
   -9.9659   -0.0567    7.4411 C   0  0  0  0  0  4           0  0  0
   -9.7711   -0.0354    5.0986 C   0  0  0  0  0  4           0  0  0
   -6.3442   -0.0000    4.1907 C   0  0  0  0  0  4           0  0  0
   -4.8306    0.0000    4.2191 C   0  0  0  0  0  4           0  0  0
   -4.2380   -0.0000    2.8129 C   0  0  0  0  0  4           0  0  0
   -2.7117    0.0000    2.8129 C   0  0  0  0  0  4           0  0  0
   -2.1190   -0.0000    1.4064 C   0  0  0  0  0  4           0  0  0
   -0.5927    0.0000    1.4064 C   0  0  0  0  0  4           0  0  0
    0.0000   -0.0000    0.0000 C   0  0  0  0  0  4           0  0  0
    1.5260    0.0000   -0.0000 C   0  0  0  0  0  4           0  0  0
    2.1188   -1.2180    0.7032 C   0  0  0  0  0  4           0  0  0
    3.6450   -1.2180    0.7032 C   0  0  0  0  0  4           0  0  0
    4.2378   -2.4360    1.4064 C   0  0  0  0  0  4           0  0  0
    5.7640   -2.4360    1.4064 C   0  0  0  0  0  4           0  0  0
    6.3567   -3.6540    2.1097 C   0  0  0  0  0  4           0  0  0
    7.8830   -3.6540    2.1097 C   0  0  0  0  0  4           0  0  0
    8.4757   -4.8721    2.8129 C   0  0  0  0  0  4           0  0  0
   10.0019   -4.8721    2.8129 C   0  0  0  0  0  4           0  0  0
   10.5947   -6.0901    3.5161 C   0  0  0  0  0  4           0  0  0
   12.1162   -6.0890    3.5155 C   0  0  0  0  0  4           0  0  0
  1  8  1  0     0  0
  2 17  2  0     0  0
  3 18  2  0     0  0
  4 19  2  0     0  0
  5  6  1  0     0  0
  5  9  1  0     0  0
  6 10  2  0     0  0
  7 11  1  0     0  0
  7 17  1  0     0  0
  7 18  1  0     0  0
  8 13  2  0     0  0
  8 14  1  0     0  0
  9 12  2  0     0  0
  9 17  1  0     0  0
 10 12  1  0     0  0
 10 19  1  0     0  0
 11 15  2  0     0  0
 11 16  1  0     0  0
 12 18  1  0     0  0
 13 15  1  0     0  0
 14 16  2  0     0  0
 19 20  1  0     0  0
 20 21  1  0     0  0
 21 22  1  0     0  0
 22 23  1  0     0  0
 23 24  1  0     0  0
 24 25  1  0     0  0
 25 26  1  0     0  0
 26 27  1  0     0  0
 27 28  1  0     0  0
 28 29  1  0     0  0
 29 30  1  0     0  0
 30 31  1  0     0  0
 31 32  1  0     0  0
 32 33  1  0     0  0
 33 34  1  0     0  0
 34 35  1  0     0  0
 35 36  1  0     0  0
M  END
> <standard_type>
IC50

> <# Confs.>
25

> <canonical_smiles>
ClC1=CC=C(N2C(C(C(C(CCCCCCCCCCCCCCCCC)=O)=NN3)=C3C2=O)=O)C=C1

> <standard_relation>
=

> <predicted_activity_value>
6.6777807052660805

> <actual_activity_value>
6.769551078621726

> <Compound>
1

> <publication_ID>
Ma_2018

> <standard_units>
nM

> hash
1119249693851212379

$$$$
1_
XXILIB    08252103493D 0   0.00000     0.00000

 36 38  0     1  0            999 V2000
  -16.5836   -0.1054    5.7217 Cl  0  0  0  0  0  1           0  0  0
  -10.3896   -0.0716    8.5854 O   0  0  0  0  0  2           0  0  0
  -10.0036   -0.0248    3.9011 O   0  0  0  0  0  2           0  0  0
   -6.9384   -0.0000    3.1127 O   0  0  0  0  0  2           0  0  0
   -7.3647   -0.0286    7.5720 N   0  0  0  0  0  3           0  0  0
   -6.4029   -0.0124    6.6183 N   0  0  0  0  0  3           0  0  0
  -10.6496   -0.0546    6.2069 N   0  0  2  0  0  3           0  0  0
  -14.8677   -0.0920    5.8605 C   0  0  0  0  0  4           0  0  0
   -8.6001   -0.0385    7.0394 C   0  0  0  0  0  4           0  0  0
   -7.0792   -0.0127    5.4470 C   0  0  0  0  0  4           0  0  0
  -12.0661   -0.0694    6.0891 C   0  0  0  0  0  4           0  0  0
   -8.4589   -0.0272    5.6868 C   0  0  0  0  0  4           0  0  0
  -14.0975    0.5252    4.8788 C   0  0  0  0  0  4           0  0  0
  -14.2566   -0.6990    6.9544 C   0  0  0  0  0  4           0  0  0
  -12.7039    0.5354    4.9930 C   0  0  0  0  0  4           0  0  0
  -12.8632   -0.6876    7.0675 C   0  0  0  0  0  4           0  0  0
   -9.9659   -0.0567    7.4411 C   0  0  0  0  0  4           0  0  0
   -9.7711   -0.0354    5.0986 C   0  0  0  0  0  4           0  0  0
   -6.3442   -0.0000    4.1907 C   0  0  0  0  0  4           0  0  0
   -4.8306    0.0000    4.2191 C   0  0  0  0  0  4           0  0  0
   -4.2380   -0.0000    2.8129 C   0  0  0  0  0  4           0  0  0
   -2.7117    0.0000    2.8129 C   0  0  0  0  0  4           0  0  0
   -2.1190   -0.0000    1.4064 C   0  0  0  0  0  4           0  0  0
   -0.5927    0.0000    1.4064 C   0  0  0  0  0  4           0  0  0
    0.0000   -0.0000    0.0000 C   0  0  0  0  0  4           0  0  0
    1.5260    0.0000    0.0000 C   0  0  0  0  0  4           0  0  0
    2.1188    0.0000   -1.4064 C   0  0  0  0  0  4           0  0  0
    3.6450   -0.0000   -1.4064 C   0  0  0  0  0  4           0  0  0
    4.2378   -0.0000   -2.8129 C   0  0  0  0  0  4           0  0  0
    5.7640   -0.0000   -2.8129 C   0  0  0  0  0  4           0  0  0
    6.3567   -1.2180   -2.1097 C   0  0  0  0  0  4           0  0  0
    7.8830   -1.2180   -2.1097 C   0  0  0  0  0  4           0  0  0
    8.4757   -2.4360   -1.4064 C   0  0  0  0  0  4           0  0  0
   10.0019   -2.4360   -1.4064 C   0  0  0  0  0  4           0  0  0
   10.5947   -3.6540   -0.7032 C   0  0  0  0  0  4           0  0  0
   12.1162   -3.6530   -0.7039 C   0  0  0  0  0  4           0  0  0
  1  8  1  0     0  0
  2 17  2  0     0  0
  3 18  2  0     0  0
  4 19  2  0     0  0
  5  6  1  0     0  0
  5  9  1  0     0  0
  6 10  2  0     0  0
  7 11  1  0     0  0
  7 17  1  0     0  0
  7 18  1  0     0  0
  8 13  2  0     0  0
  8 14  1  0     0  0
  9 12  2  0     0  0
  9 17  1  0     0  0
 10 12  1  0     0  0
 10 19  1  0     0  0
 11 15  2  0     0  0
 11 16  1  0     0  0
 12 18  1  0     0  0
 13 15  1  0     0  0
 14 16  2  0     0  0
 19 20  1  0     0  0
 20 21  1  0     0  0
 21 22  1  0     0  0
 22 23  1  0     0  0
 23 24  1  0     0  0
 24 25  1  0     0  0
 25 26  1  0     0  0
 26 27  1  0     0  0
 27 28  1  0     0  0
 28 29  1  0     0  0
 29 30  1  0     0  0
 30 31  1  0     0  0
 31 32  1  0     0  0
 32 33  1  0     0  0
 33 34  1  0     0  0
 34 35  1  0     0  0
 35 36  1  0     0  0
M  END
> <standard_type>
IC50

> <# Confs.>
25

> <canonical_smiles>
ClC1=CC=C(N2C(C(C(C(CCCCCCCCCCCCCCCCC)=O)=NN3)=C3C2=O)=O)C=C1

> <standard_relation>
=

> <predicted_activity_value>
6.6777807052660805

> <actual_activity_value>
6.769551078621726

> <Compound>
1

> <publication_ID>
Ma_2018

> <standard_units>
nM

> hash
1119249693851212379

$$$$
1_
XXILIB    08252103493D 0   0.00000     0.00000

 36 38  0     1  0            999 V2000
  -16.5836   -0.1054    5.7217 Cl  0  0  0  0  0  1           0  0  0
  -10.3896   -0.0716    8.5854 O   0  0  0  0  0  2           0  0  0
  -10.0036   -0.0248    3.9011 O   0  0  0  0  0  2           0  0  0
   -6.9384   -0.0000    3.1127 O   0  0  0  0  0  2           0  0  0
   -7.3647   -0.0286    7.5720 N   0  0  0  0  0  3           0  0  0
   -6.4029   -0.0124    6.6183 N   0  0  0  0  0  3           0  0  0
  -10.6496   -0.0546    6.2069 N   0  0  2  0  0  3           0  0  0
  -14.8677   -0.0920    5.8605 C   0  0  0  0  0  4           0  0  0
   -8.6001   -0.0385    7.0394 C   0  0  0  0  0  4           0  0  0
   -7.0792   -0.0127    5.4470 C   0  0  0  0  0  4           0  0  0
  -12.0661   -0.0694    6.0891 C   0  0  0  0  0  4           0  0  0
   -8.4589   -0.0272    5.6868 C   0  0  0  0  0  4           0  0  0
  -14.0975    0.5252    4.8788 C   0  0  0  0  0  4           0  0  0
  -14.2566   -0.6990    6.9544 C   0  0  0  0  0  4           0  0  0
  -12.7039    0.5354    4.9930 C   0  0  0  0  0  4           0  0  0
  -12.8632   -0.6876    7.0675 C   0  0  0  0  0  4           0  0  0
   -9.9659   -0.0567    7.4411 C   0  0  0  0  0  4           0  0  0
   -9.7711   -0.0354    5.0986 C   0  0  0  0  0  4           0  0  0
   -6.3442   -0.0000    4.1907 C   0  0  0  0  0  4           0  0  0
   -4.8306    0.0000    4.2191 C   0  0  0  0  0  4           0  0  0
   -4.2380   -0.0000    2.8129 C   0  0  0  0  0  4           0  0  0
   -2.7117    0.0000    2.8129 C   0  0  0  0  0  4           0  0  0
   -2.1190   -0.0000    1.4064 C   0  0  0  0  0  4           0  0  0
   -0.5927    0.0000    1.4064 C   0  0  0  0  0  4           0  0  0
    0.0000   -0.0000    0.0000 C   0  0  0  0  0  4           0  0  0
    1.5260    0.0000    0.0000 C   0  0  0  0  0  4           0  0  0
    2.1188    0.0000   -1.4064 C   0  0  0  0  0  4           0  0  0
    3.6450    0.0000   -1.4064 C   0  0  0  0  0  4           0  0  0
    4.2378    0.0000   -2.8129 C   0  0  0  0  0  4           0  0  0
    5.7640    0.0000   -2.8129 C   0  0  0  0  0  4           0  0  0
    6.3567    0.0000   -4.2193 C   0  0  0  0  0  4           0  0  0
    5.9389    1.2180   -5.0386 C   0  0  0  0  0  4           0  0  0
    6.5316    1.2180   -6.4451 C   0  0  0  0  0  4           0  0  0
    6.1138    2.4360   -7.2644 C   0  0  0  0  0  4           0  0  0
    6.7065    2.4360   -8.6708 C   0  0  0  0  0  4           0  0  0
    6.2893    3.6507   -9.4866 C   0  0  0  0  0  4           0  0  0
  1  8  1  0     0  0
  2 17  2  0     0  0
  3 18  2  0     0  0
  4 19  2  0     0  0
  5  6  1  0     0  0
  5  9  1  0     0  0
  6 10  2  0     0  0
  7 11  1  0     0  0
  7 17  1  0     0  0
  7 18  1  0     0  0
  8 13  2  0     0  0
  8 14  1  0     0  0
  9 12  2  0     0  0
  9 17  1  0     0  0
 10 12  1  0     0  0
 10 19  1  0     0  0
 11 15  2  0     0  0
 11 16  1  0     0  0
 12 18  1  0     0  0
 13 15  1  0     0  0
 14 16  2  0     0  0
 19 20  1  0     0  0
 20 21  1  0     0  0
 21 22  1  0     0  0
 22 23  1  0     0  0
 23 24  1  0     0  0
 24 25  1  0     0  0
 25 26  1  0     0  0
 26 27  1  0     0  0
 27 28  1  0     0  0
 28 29  1  0     0  0
 29 30  1  0     0  0
 30 31  1  0     0  0
 31 32  1  0     0  0
 32 33  1  0     0  0
 33 34  1  0     0  0
 34 35  1  0     0  0
 35 36  1  0     0  0
M  END
> <standard_type>
IC50

> <# Confs.>
25

> <canonical_smiles>
ClC1=CC=C(N2C(C(C(C(CCCCCCCCCCCCCCCCC)=O)=NN3)=C3C2=O)=O)C=C1

> <standard_relation>
=

> <predicted_activity_value>
6.6777807052660805

> <actual_activity_value>
6.769551078621726

> <Compound>
1

> <publication_ID>
Ma_2018

> <standard_units>
nM

> hash
1119249693851212379

$$$$
1_
XXILIB    08252103493D 0   0.00000     0.00000

 36 38  0     1  0            999 V2000
  -16.5836   -0.1054    5.7217 Cl  0  0  0  0  0  1           0  0  0
  -10.3896   -0.0716    8.5854 O   0  0  0  0  0  2           0  0  0
  -10.0036   -0.0248    3.9011 O   0  0  0  0  0  2           0  0  0
   -6.9384   -0.0000    3.1127 O   0  0  0  0  0  2           0  0  0
   -7.3647   -0.0286    7.5720 N   0  0  0  0  0  3           0  0  0
   -6.4029   -0.0124    6.6183 N   0  0  0  0  0  3           0  0  0
  -10.6496   -0.0546    6.2069 N   0  0  2  0  0  3           0  0  0
  -14.8677   -0.0920    5.8605 C   0  0  0  0  0  4           0  0  0
   -8.6001   -0.0385    7.0394 C   0  0  0  0  0  4           0  0  0
   -7.0792   -0.0127    5.4470 C   0  0  0  0  0  4           0  0  0
  -12.0661   -0.0694    6.0891 C   0  0  0  0  0  4           0  0  0
   -8.4589   -0.0272    5.6868 C   0  0  0  0  0  4           0  0  0
  -14.0975    0.5252    4.8788 C   0  0  0  0  0  4           0  0  0
  -14.2566   -0.6990    6.9544 C   0  0  0  0  0  4           0  0  0
  -12.7039    0.5354    4.9930 C   0  0  0  0  0  4           0  0  0
  -12.8632   -0.6876    7.0675 C   0  0  0  0  0  4           0  0  0
   -9.9659   -0.0567    7.4411 C   0  0  0  0  0  4           0  0  0
   -9.7711   -0.0354    5.0986 C   0  0  0  0  0  4           0  0  0
   -6.3442   -0.0000    4.1907 C   0  0  0  0  0  4           0  0  0
   -4.8306    0.0000    4.2191 C   0  0  0  0  0  4           0  0  0
   -4.2380   -0.0000    2.8129 C   0  0  0  0  0  4           0  0  0
   -2.7117    0.0000    2.8129 C   0  0  0  0  0  4           0  0  0
   -2.1190   -0.0000    1.4064 C   0  0  0  0  0  4           0  0  0
   -0.5927    0.0000    1.4064 C   0  0  0  0  0  4           0  0  0
    0.0000   -0.0000    0.0000 C   0  0  0  0  0  4           0  0  0
    1.5260    0.0000    0.0000 C   0  0  0  0  0  4           0  0  0
    2.1188    0.0000   -1.4064 C   0  0  0  0  0  4           0  0  0
    3.6450    0.0000   -1.4064 C   0  0  0  0  0  4           0  0  0
    4.2378    0.0000   -2.8129 C   0  0  0  0  0  4           0  0  0
    5.7640    0.0000   -2.8129 C   0  0  0  0  0  4           0  0  0
    6.3567    0.0000   -4.2193 C   0  0  0  0  0  4           0  0  0
    7.8830    0.0000   -4.2193 C   0  0  0  0  0  4           0  0  0
    8.4757   -1.2180   -3.5161 C   0  0  0  0  0  4           0  0  0
   10.0019   -1.2180   -3.5161 C   0  0  0  0  0  4           0  0  0
   10.5947   -2.4360   -2.8129 C   0  0  0  0  0  4           0  0  0
   12.1162   -2.4349   -2.8135 C   0  0  0  0  0  4           0  0  0
  1  8  1  0     0  0
  2 17  2  0     0  0
  3 18  2  0     0  0
  4 19  2  0     0  0
  5  6  1  0     0  0
  5  9  1  0     0  0
  6 10  2  0     0  0
  7 11  1  0     0  0
  7 17  1  0     0  0
  7 18  1  0     0  0
  8 13  2  0     0  0
  8 14  1  0     0  0
  9 12  2  0     0  0
  9 17  1  0     0  0
 10 12  1  0     0  0
 10 19  1  0     0  0
 11 15  2  0     0  0
 11 16  1  0     0  0
 12 18  1  0     0  0
 13 15  1  0     0  0
 14 16  2  0     0  0
 19 20  1  0     0  0
 20 21  1  0     0  0
 21 22  1  0     0  0
 22 23  1  0     0  0
 23 24  1  0     0  0
 24 25  1  0     0  0
 25 26  1  0     0  0
 26 27  1  0     0  0
 27 28  1  0     0  0
 28 29  1  0     0  0
 29 30  1  0     0  0
 30 31  1  0     0  0
 31 32  1  0     0  0
 32 33  1  0     0  0
 33 34  1  0     0  0
 34 35  1  0     0  0
 35 36  1  0     0  0
M  END
> <standard_type>
IC50

> <# Confs.>
25

> <canonical_smiles>
ClC1=CC=C(N2C(C(C(C(CCCCCCCCCCCCCCCCC)=O)=NN3)=C3C2=O)=O)C=C1

> <standard_relation>
=

> <predicted_activity_value>
6.6777807052660805

> <actual_activity_value>
6.769551078621726

> <Compound>
1

> <publication_ID>
Ma_2018

> <standard_units>
nM

> hash
1119249693851212379

$$$$
1_
XXILIB    08252103493D 0   0.00000     0.00000

 36 38  0     1  0            999 V2000
  -16.5836   -0.1054    5.7217 Cl  0  0  0  0  0  1           0  0  0
  -10.3896   -0.0716    8.5854 O   0  0  0  0  0  2           0  0  0
  -10.0036   -0.0248    3.9011 O   0  0  0  0  0  2           0  0  0
   -6.9384   -0.0000    3.1127 O   0  0  0  0  0  2           0  0  0
   -7.3647   -0.0286    7.5720 N   0  0  0  0  0  3           0  0  0
   -6.4029   -0.0124    6.6183 N   0  0  0  0  0  3           0  0  0
  -10.6496   -0.0546    6.2069 N   0  0  2  0  0  3           0  0  0
  -14.8677   -0.0920    5.8605 C   0  0  0  0  0  4           0  0  0
   -8.6001   -0.0385    7.0394 C   0  0  0  0  0  4           0  0  0
   -7.0792   -0.0127    5.4470 C   0  0  0  0  0  4           0  0  0
  -12.0661   -0.0694    6.0891 C   0  0  0  0  0  4           0  0  0
   -8.4589   -0.0272    5.6868 C   0  0  0  0  0  4           0  0  0
  -14.0975    0.5252    4.8788 C   0  0  0  0  0  4           0  0  0
  -14.2566   -0.6990    6.9544 C   0  0  0  0  0  4           0  0  0
  -12.7039    0.5354    4.9930 C   0  0  0  0  0  4           0  0  0
  -12.8632   -0.6876    7.0675 C   0  0  0  0  0  4           0  0  0
   -9.9659   -0.0567    7.4411 C   0  0  0  0  0  4           0  0  0
   -9.7711   -0.0354    5.0986 C   0  0  0  0  0  4           0  0  0
   -6.3442   -0.0000    4.1907 C   0  0  0  0  0  4           0  0  0
   -4.8306    0.0000    4.2191 C   0  0  0  0  0  4           0  0  0
   -4.2380   -0.0000    2.8129 C   0  0  0  0  0  4           0  0  0
   -2.7117    0.0000    2.8129 C   0  0  0  0  0  4           0  0  0
   -2.1190   -0.0000    1.4064 C   0  0  0  0  0  4           0  0  0
   -0.5927    0.0000    1.4064 C   0  0  0  0  0  4           0  0  0
    0.0000   -0.0000    0.0000 C   0  0  0  0  0  4           0  0  0
    1.5260    0.0000    0.0000 C   0  0  0  0  0  4           0  0  0
    2.1188    0.0000   -1.4064 C   0  0  0  0  0  4           0  0  0
    3.6450    0.0000   -1.4064 C   0  0  0  0  0  4           0  0  0
    4.2378    0.0000   -2.8129 C   0  0  0  0  0  4           0  0  0
    5.7640    0.0000   -2.8129 C   0  0  0  0  0  4           0  0  0
    6.3567    0.0000   -4.2193 C   0  0  0  0  0  4           0  0  0
    7.8830    0.0000   -4.2193 C   0  0  0  0  0  4           0  0  0
    8.4757    0.0000   -5.6258 C   0  0  0  0  0  4           0  0  0
    8.0579    1.2180   -6.4451 C   0  0  0  0  0  4           0  0  0
    8.6506    1.2180   -7.8515 C   0  0  0  0  0  4           0  0  0
    8.2334    2.4327   -8.6673 C   0  0  0  0  0  4           0  0  0
  1  8  1  0     0  0
  2 17  2  0     0  0
  3 18  2  0     0  0
  4 19  2  0     0  0
  5  6  1  0     0  0
  5  9  1  0     0  0
  6 10  2  0     0  0
  7 11  1  0     0  0
  7 17  1  0     0  0
  7 18  1  0     0  0
  8 13  2  0     0  0
  8 14  1  0     0  0
  9 12  2  0     0  0
  9 17  1  0     0  0
 10 12  1  0     0  0
 10 19  1  0     0  0
 11 15  2  0     0  0
 11 16  1  0     0  0
 12 18  1  0     0  0
 13 15  1  0     0  0
 14 16  2  0     0  0
 19 20  1  0     0  0
 20 21  1  0     0  0
 21 22  1  0     0  0
 22 23  1  0     0  0
 23 24  1  0     0  0
 24 25  1  0     0  0
 25 26  1  0     0  0
 26 27  1  0     0  0
 27 28  1  0     0  0
 28 29  1  0     0  0
 29 30  1  0     0  0
 30 31  1  0     0  0
 31 32  1  0     0  0
 32 33  1  0     0  0
 33 34  1  0     0  0
 34 35  1  0     0  0
 35 36  1  0     0  0
M  END
> <standard_type>
IC50

> <# Confs.>
25

> <canonical_smiles>
ClC1=CC=C(N2C(C(C(C(CCCCCCCCCCCCCCCCC)=O)=NN3)=C3C2=O)=O)C=C1

> <standard_relation>
=

> <predicted_activity_value>
6.6777807052660805

> <actual_activity_value>
6.769551078621726

> <Compound>
1

> <publication_ID>
Ma_2018

> <standard_units>
nM

> hash
1119249693851212379

$$$$
1_
XXILIB    08252103493D 0   0.00000     0.00000

 36 38  0     1  0            999 V2000
    1.5526  -11.2575   13.3650 Cl  0  0  0  0  0  1           0  0  0
   -1.7074   -5.3681   12.2445 O   0  0  0  0  0  2           0  0  0
    0.6642   -6.6589    8.3969 O   0  0  0  0  0  2           0  0  0
    0.2285   -4.4903    6.1332 O   0  0  0  0  0  2           0  0  0
   -2.0258   -3.3164    9.8221 N   0  0  0  0  0  3           0  0  0
   -1.7900   -2.8777    8.5624 N   0  0  0  0  0  3           0  0  0
   -0.3729   -6.3840   10.5379 N   0  0  2  0  0  3           0  0  0
    0.9976   -9.8480   12.5468 C   0  0  0  0  0  4           0  0  0
   -1.3937   -4.4765   10.0765 C   0  0  0  0  0  4           0  0  0
   -0.9759   -3.8112    8.0191 C   0  0  0  0  0  4           0  0  0
    0.0899   -7.5467   11.2121 C   0  0  0  0  0  4           0  0  0
   -0.7154   -4.8244    8.9503 C   0  0  0  0  0  4           0  0  0
    0.8212   -9.8721   11.1662 C   0  0  0  0  0  4           0  0  0
    0.7275   -8.6890   13.2693 C   0  0  0  0  0  4           0  0  0
    0.3702   -8.7267   10.5030 C   0  0  0  0  0  4           0  0  0
    0.2763   -7.5447   12.6050 C   0  0  0  0  0  4           0  0  0
   -1.2209   -5.4223   11.1266 C   0  0  0  0  0  4           0  0  0
   -0.0338   -6.0653    9.2023 C   0  0  0  0  0  4           0  0  0
   -0.5128   -3.6536    6.6483 C   0  0  0  0  0  4           0  0  0
   -0.9425   -2.4360    5.8578 C   0  0  0  0  0  4           0  0  0
   -0.3498   -2.4360    4.4515 C   0  0  0  0  0  4           0  0  0
   -0.7676   -1.2180    3.6322 C   0  0  0  0  0  4           0  0  0
   -0.1749   -1.2180    2.2258 C   0  0  0  0  0  4           0  0  0
   -0.5927   -0.0000    1.4064 C   0  0  0  0  0  4           0  0  0
    0.0000    0.0000    0.0000 C   0  0  0  0  0  4           0  0  0
    1.5260    0.0000    0.0000 C   0  0  0  0  0  4           0  0  0
    2.1188    0.0000   -1.4064 C   0  0  0  0  0  4           0  0  0
    3.6450    0.0000   -1.4064 C   0  0  0  0  0  4           0  0  0
    4.2378    0.0000   -2.8129 C   0  0  0  0  0  4           0  0  0
    5.7640    0.0000   -2.8129 C   0  0  0  0  0  4           0  0  0
    6.3567    0.0000   -4.2193 C   0  0  0  0  0  4           0  0  0
    7.8830    0.0000   -4.2193 C   0  0  0  0  0  4           0  0  0
    8.4757    0.0000   -5.6258 C   0  0  0  0  0  4           0  0  0
   10.0019    0.0000   -5.6258 C   0  0  0  0  0  4           0  0  0
   10.5947    0.0000   -7.0322 C   0  0  0  0  0  4           0  0  0
   12.1162    0.0000   -7.0310 C   0  0  0  0  0  4           0  0  0
  1  8  1  0     0  0
  2 17  2  0     0  0
  3 18  2  0     0  0
  4 19  2  0     0  0
  5  6  1  0     0  0
  5  9  1  0     0  0
  6 10  2  0     0  0
  7 11  1  0     0  0
  7 17  1  0     0  0
  7 18  1  0     0  0
  8 13  2  0     0  0
  8 14  1  0     0  0
  9 12  2  0     0  0
  9 17  1  0     0  0
 10 12  1  0     0  0
 10 19  1  0     0  0
 11 15  2  0     0  0
 11 16  1  0     0  0
 12 18  1  0     0  0
 13 15  1  0     0  0
 14 16  2  0     0  0
 19 20  1  0     0  0
 20 21  1  0     0  0
 21 22  1  0     0  0
 22 23  1  0     0  0
 23 24  1  0     0  0
 24 25  1  0     0  0
 25 26  1  0     0  0
 26 27  1  0     0  0
 27 28  1  0     0  0
 28 29  1  0     0  0
 29 30  1  0     0  0
 30 31  1  0     0  0
 31 32  1  0     0  0
 32 33  1  0     0  0
 33 34  1  0     0  0
 34 35  1  0     0  0
 35 36  1  0     0  0
M  END
> <standard_type>
IC50

> <# Confs.>
25

> <canonical_smiles>
ClC1=CC=C(N2C(C(C(C(CCCCCCCCCCCCCCCCC)=O)=NN3)=C3C2=O)=O)C=C1

> <standard_relation>
=

> <predicted_activity_value>
6.6777807052660805

> <actual_activity_value>
6.769551078621726

> <Compound>
1

> <publication_ID>
Ma_2018

> <standard_units>
nM

> hash
1119249693851212379

$$$$
1_
XXILIB    08252103493D 0   0.00000     0.00000

 36 38  0     1  0            999 V2000
  -16.5836   -0.1054    5.7217 Cl  0  0  0  0  0  1           0  0  0
  -10.3896   -0.0716    8.5854 O   0  0  0  0  0  2           0  0  0
  -10.0036   -0.0248    3.9011 O   0  0  0  0  0  2           0  0  0
   -6.9384   -0.0000    3.1127 O   0  0  0  0  0  2           0  0  0
   -7.3647   -0.0286    7.5720 N   0  0  0  0  0  3           0  0  0
   -6.4029   -0.0124    6.6183 N   0  0  0  0  0  3           0  0  0
  -10.6496   -0.0546    6.2069 N   0  0  2  0  0  3           0  0  0
  -14.8677   -0.0920    5.8605 C   0  0  0  0  0  4           0  0  0
   -8.6001   -0.0385    7.0394 C   0  0  0  0  0  4           0  0  0
   -7.0792   -0.0127    5.4470 C   0  0  0  0  0  4           0  0  0
  -12.0661   -0.0694    6.0891 C   0  0  0  0  0  4           0  0  0
   -8.4589   -0.0272    5.6868 C   0  0  0  0  0  4           0  0  0
  -14.0975    0.5252    4.8788 C   0  0  0  0  0  4           0  0  0
  -14.2566   -0.6990    6.9544 C   0  0  0  0  0  4           0  0  0
  -12.7039    0.5354    4.9930 C   0  0  0  0  0  4           0  0  0
  -12.8632   -0.6876    7.0675 C   0  0  0  0  0  4           0  0  0
   -9.9659   -0.0567    7.4411 C   0  0  0  0  0  4           0  0  0
   -9.7711   -0.0354    5.0986 C   0  0  0  0  0  4           0  0  0
   -6.3442   -0.0000    4.1907 C   0  0  0  0  0  4           0  0  0
   -4.8306    0.0000    4.2191 C   0  0  0  0  0  4           0  0  0
   -4.2380   -0.0000    2.8129 C   0  0  0  0  0  4           0  0  0
   -2.7117    0.0000    2.8129 C   0  0  0  0  0  4           0  0  0
   -2.1190   -0.0000    1.4064 C   0  0  0  0  0  4           0  0  0
   -0.5927    0.0000    1.4064 C   0  0  0  0  0  4           0  0  0
    0.0000   -0.0000    0.0000 C   0  0  0  0  0  4           0  0  0
    1.5260    0.0000   -0.0000 C   0  0  0  0  0  4           0  0  0
    2.1188    0.0000   -1.4064 C   0  0  0  0  0  4           0  0  0
    3.6450   -0.0000   -1.4064 C   0  0  0  0  0  4           0  0  0
    4.2378    1.2180   -0.7032 C   0  0  0  0  0  4           0  0  0
    5.7640    1.2180   -0.7032 C   0  0  0  0  0  4           0  0  0
    6.3567    2.4360   -0.0000 C   0  0  0  0  0  4           0  0  0
    7.8830    2.4360   -0.0000 C   0  0  0  0  0  4           0  0  0
    8.4757    3.6540    0.7032 C   0  0  0  0  0  4           0  0  0
   10.0019    3.6540    0.7032 C   0  0  0  0  0  4           0  0  0
   10.5947    4.8721    1.4064 C   0  0  0  0  0  4           0  0  0
   12.1162    4.8710    1.4058 C   0  0  0  0  0  4           0  0  0
  1  8  1  0     0  0
  2 17  2  0     0  0
  3 18  2  0     0  0
  4 19  2  0     0  0
  5  6  1  0     0  0
  5  9  1  0     0  0
  6 10  2  0     0  0
  7 11  1  0     0  0
  7 17  1  0     0  0
  7 18  1  0     0  0
  8 13  2  0     0  0
  8 14  1  0     0  0
  9 12  2  0     0  0
  9 17  1  0     0  0
 10 12  1  0     0  0
 10 19  1  0     0  0
 11 15  2  0     0  0
 11 16  1  0     0  0
 12 18  1  0     0  0
 13 15  1  0     0  0
 14 16  2  0     0  0
 19 20  1  0     0  0
 20 21  1  0     0  0
 21 22  1  0     0  0
 22 23  1  0     0  0
 23 24  1  0     0  0
 24 25  1  0     0  0
 25 26  1  0     0  0
 26 27  1  0     0  0
 27 28  1  0     0  0
 28 29  1  0     0  0
 29 30  1  0     0  0
 30 31  1  0     0  0
 31 32  1  0     0  0
 32 33  1  0     0  0
 33 34  1  0     0  0
 34 35  1  0     0  0
 35 36  1  0     0  0
M  END
> <standard_type>
IC50

> <# Confs.>
25

> <canonical_smiles>
ClC1=CC=C(N2C(C(C(C(CCCCCCCCCCCCCCCCC)=O)=NN3)=C3C2=O)=O)C=C1

> <standard_relation>
=

> <predicted_activity_value>
6.6777807052660805

> <actual_activity_value>
6.769551078621726

> <Compound>
1

> <publication_ID>
Ma_2018

> <standard_units>
nM

> hash
1119249693851212379

$$$$
1_
XXILIB    08252103493D 0   0.00000     0.00000

 36 38  0     1  0            999 V2000
  -16.5836   -0.1054    5.7217 Cl  0  0  0  0  0  1           0  0  0
  -10.3896   -0.0716    8.5854 O   0  0  0  0  0  2           0  0  0
  -10.0036   -0.0248    3.9011 O   0  0  0  0  0  2           0  0  0
   -6.9384   -0.0000    3.1127 O   0  0  0  0  0  2           0  0  0
   -7.3647   -0.0286    7.5720 N   0  0  0  0  0  3           0  0  0
   -6.4029   -0.0124    6.6183 N   0  0  0  0  0  3           0  0  0
  -10.6496   -0.0546    6.2069 N   0  0  2  0  0  3           0  0  0
  -14.8677   -0.0920    5.8605 C   0  0  0  0  0  4           0  0  0
   -8.6001   -0.0385    7.0394 C   0  0  0  0  0  4           0  0  0
   -7.0792   -0.0127    5.4470 C   0  0  0  0  0  4           0  0  0
  -12.0661   -0.0694    6.0891 C   0  0  0  0  0  4           0  0  0
   -8.4589   -0.0272    5.6868 C   0  0  0  0  0  4           0  0  0
  -14.0975    0.5252    4.8788 C   0  0  0  0  0  4           0  0  0
  -14.2566   -0.6990    6.9544 C   0  0  0  0  0  4           0  0  0
  -12.7039    0.5354    4.9930 C   0  0  0  0  0  4           0  0  0
  -12.8632   -0.6876    7.0675 C   0  0  0  0  0  4           0  0  0
   -9.9659   -0.0567    7.4411 C   0  0  0  0  0  4           0  0  0
   -9.7711   -0.0354    5.0986 C   0  0  0  0  0  4           0  0  0
   -6.3442   -0.0000    4.1907 C   0  0  0  0  0  4           0  0  0
   -4.8306    0.0000    4.2191 C   0  0  0  0  0  4           0  0  0
   -4.2380   -0.0000    2.8129 C   0  0  0  0  0  4           0  0  0
   -2.7117    0.0000    2.8129 C   0  0  0  0  0  4           0  0  0
   -2.1190   -0.0000    1.4064 C   0  0  0  0  0  4           0  0  0
   -0.5927    0.0000    1.4064 C   0  0  0  0  0  4           0  0  0
    0.0000   -0.0000    0.0000 C   0  0  0  0  0  4           0  0  0
    1.5260    0.0000   -0.0000 C   0  0  0  0  0  4           0  0  0
    2.1188    0.0000   -1.4064 C   0  0  0  0  0  4           0  0  0
    3.6450    0.0000   -1.4064 C   0  0  0  0  0  4           0  0  0
    4.2378    0.0000   -2.8129 C   0  0  0  0  0  4           0  0  0
    3.8199   -1.2180   -3.6322 C   0  0  0  0  0  4           0  0  0
    4.4127   -1.2180   -5.0386 C   0  0  0  0  0  4           0  0  0
    3.9948   -2.4360   -5.8580 C   0  0  0  0  0  4           0  0  0
    4.5876   -2.4360   -7.2644 C   0  0  0  0  0  4           0  0  0
    4.1697   -3.6540   -8.0837 C   0  0  0  0  0  4           0  0  0
    4.7625   -3.6540   -9.4902 C   0  0  0  0  0  4           0  0  0
    4.3453   -4.8687  -10.3060 C   0  0  0  0  0  4           0  0  0
  1  8  1  0     0  0
  2 17  2  0     0  0
  3 18  2  0     0  0
  4 19  2  0     0  0
  5  6  1  0     0  0
  5  9  1  0     0  0
  6 10  2  0     0  0
  7 11  1  0     0  0
  7 17  1  0     0  0
  7 18  1  0     0  0
  8 13  2  0     0  0
  8 14  1  0     0  0
  9 12  2  0     0  0
  9 17  1  0     0  0
 10 12  1  0     0  0
 10 19  1  0     0  0
 11 15  2  0     0  0
 11 16  1  0     0  0
 12 18  1  0     0  0
 13 15  1  0     0  0
 14 16  2  0     0  0
 19 20  1  0     0  0
 20 21  1  0     0  0
 21 22  1  0     0  0
 22 23  1  0     0  0
 23 24  1  0     0  0
 24 25  1  0     0  0
 25 26  1  0     0  0
 26 27  1  0     0  0
 27 28  1  0     0  0
 28 29  1  0     0  0
 29 30  1  0     0  0
 30 31  1  0     0  0
 31 32  1  0     0  0
 32 33  1  0     0  0
 33 34  1  0     0  0
 34 35  1  0     0  0
 35 36  1  0     0  0
M  END
> <standard_type>
IC50

> <# Confs.>
25

> <canonical_smiles>
ClC1=CC=C(N2C(C(C(C(CCCCCCCCCCCCCCCCC)=O)=NN3)=C3C2=O)=O)C=C1

> <standard_relation>
=

> <predicted_activity_value>
6.6777807052660805

> <actual_activity_value>
6.769551078621726

> <Compound>
1

> <publication_ID>
Ma_2018

> <standard_units>
nM

> hash
1119249693851212379

$$$$
1_
XXILIB    08252103493D 0   0.00000     0.00000

 36 38  0     1  0            999 V2000
  -16.5836   -0.1054    5.7217 Cl  0  0  0  0  0  1           0  0  0
  -10.3896   -0.0716    8.5854 O   0  0  0  0  0  2           0  0  0
  -10.0036   -0.0248    3.9011 O   0  0  0  0  0  2           0  0  0
   -6.9384   -0.0000    3.1127 O   0  0  0  0  0  2           0  0  0
   -7.3647   -0.0286    7.5720 N   0  0  0  0  0  3           0  0  0
   -6.4029   -0.0124    6.6183 N   0  0  0  0  0  3           0  0  0
  -10.6496   -0.0546    6.2069 N   0  0  2  0  0  3           0  0  0
  -14.8677   -0.0920    5.8605 C   0  0  0  0  0  4           0  0  0
   -8.6001   -0.0385    7.0394 C   0  0  0  0  0  4           0  0  0
   -7.0792   -0.0127    5.4470 C   0  0  0  0  0  4           0  0  0
  -12.0661   -0.0694    6.0891 C   0  0  0  0  0  4           0  0  0
   -8.4589   -0.0272    5.6868 C   0  0  0  0  0  4           0  0  0
  -14.0975    0.5252    4.8788 C   0  0  0  0  0  4           0  0  0
  -14.2566   -0.6990    6.9544 C   0  0  0  0  0  4           0  0  0
  -12.7039    0.5354    4.9930 C   0  0  0  0  0  4           0  0  0
  -12.8632   -0.6876    7.0675 C   0  0  0  0  0  4           0  0  0
   -9.9659   -0.0567    7.4411 C   0  0  0  0  0  4           0  0  0
   -9.7711   -0.0354    5.0986 C   0  0  0  0  0  4           0  0  0
   -6.3442   -0.0000    4.1907 C   0  0  0  0  0  4           0  0  0
   -4.8306    0.0000    4.2191 C   0  0  0  0  0  4           0  0  0
   -4.2380   -0.0000    2.8129 C   0  0  0  0  0  4           0  0  0
   -2.7117    0.0000    2.8129 C   0  0  0  0  0  4           0  0  0
   -2.1190   -0.0000    1.4064 C   0  0  0  0  0  4           0  0  0
   -0.5927    0.0000    1.4064 C   0  0  0  0  0  4           0  0  0
    0.0000   -0.0000    0.0000 C   0  0  0  0  0  4           0  0  0
    1.5260   -0.0000    0.0000 C   0  0  0  0  0  4           0  0  0
    2.1188    0.0000   -1.4064 C   0  0  0  0  0  4           0  0  0
    1.7009   -1.2180   -2.2258 C   0  0  0  0  0  4           0  0  0
    2.2937   -1.2180   -3.6322 C   0  0  0  0  0  4           0  0  0
    1.8759   -2.4360   -4.4515 C   0  0  0  0  0  4           0  0  0
    2.4686   -2.4360   -5.8580 C   0  0  0  0  0  4           0  0  0
    2.0508   -3.6540   -6.6773 C   0  0  0  0  0  4           0  0  0
    2.6435   -3.6540   -8.0837 C   0  0  0  0  0  4           0  0  0
    2.2257   -4.8721   -8.9030 C   0  0  0  0  0  4           0  0  0
    2.8184   -4.8721  -10.3095 C   0  0  0  0  0  4           0  0  0
    2.4012   -6.0867  -11.1253 C   0  0  0  0  0  4           0  0  0
  1  8  1  0     0  0
  2 17  2  0     0  0
  3 18  2  0     0  0
  4 19  2  0     0  0
  5  6  1  0     0  0
  5  9  1  0     0  0
  6 10  2  0     0  0
  7 11  1  0     0  0
  7 17  1  0     0  0
  7 18  1  0     0  0
  8 13  2  0     0  0
  8 14  1  0     0  0
  9 12  2  0     0  0
  9 17  1  0     0  0
 10 12  1  0     0  0
 10 19  1  0     0  0
 11 15  2  0     0  0
 11 16  1  0     0  0
 12 18  1  0     0  0
 13 15  1  0     0  0
 14 16  2  0     0  0
 19 20  1  0     0  0
 20 21  1  0     0  0
 21 22  1  0     0  0
 22 23  1  0     0  0
 23 24  1  0     0  0
 24 25  1  0     0  0
 25 26  1  0     0  0
 26 27  1  0     0  0
 27 28  1  0     0  0
 28 29  1  0     0  0
 29 30  1  0     0  0
 30 31  1  0     0  0
 31 32  1  0     0  0
 32 33  1  0     0  0
 33 34  1  0     0  0
 34 35  1  0     0  0
 35 36  1  0     0  0
M  END
> <standard_type>
IC50

> <# Confs.>
25

> <canonical_smiles>
ClC1=CC=C(N2C(C(C(C(CCCCCCCCCCCCCCCCC)=O)=NN3)=C3C2=O)=O)C=C1

> <standard_relation>
=

> <predicted_activity_value>
6.6777807052660805

> <actual_activity_value>
6.769551078621726

> <Compound>
1

> <publication_ID>
Ma_2018

> <standard_units>
nM

> hash
1119249693851212379

$$$$
1_
XXILIB    08252103493D 0   0.00000     0.00000

 36 38  0     1  0            999 V2000
  -16.5836   -0.1054    5.7217 Cl  0  0  0  0  0  1           0  0  0
  -10.3896   -0.0716    8.5854 O   0  0  0  0  0  2           0  0  0
  -10.0036   -0.0248    3.9011 O   0  0  0  0  0  2           0  0  0
   -6.9384   -0.0000    3.1127 O   0  0  0  0  0  2           0  0  0
   -7.3647   -0.0286    7.5720 N   0  0  0  0  0  3           0  0  0
   -6.4029   -0.0124    6.6183 N   0  0  0  0  0  3           0  0  0
  -10.6496   -0.0546    6.2069 N   0  0  2  0  0  3           0  0  0
  -14.8677   -0.0920    5.8605 C   0  0  0  0  0  4           0  0  0
   -8.6001   -0.0385    7.0394 C   0  0  0  0  0  4           0  0  0
   -7.0792   -0.0127    5.4470 C   0  0  0  0  0  4           0  0  0
  -12.0661   -0.0694    6.0891 C   0  0  0  0  0  4           0  0  0
   -8.4589   -0.0272    5.6868 C   0  0  0  0  0  4           0  0  0
  -14.0975    0.5252    4.8788 C   0  0  0  0  0  4           0  0  0
  -14.2566   -0.6990    6.9544 C   0  0  0  0  0  4           0  0  0
  -12.7039    0.5354    4.9930 C   0  0  0  0  0  4           0  0  0
  -12.8632   -0.6876    7.0675 C   0  0  0  0  0  4           0  0  0
   -9.9659   -0.0567    7.4411 C   0  0  0  0  0  4           0  0  0
   -9.7711   -0.0354    5.0986 C   0  0  0  0  0  4           0  0  0
   -6.3442   -0.0000    4.1907 C   0  0  0  0  0  4           0  0  0
   -4.8306    0.0000    4.2191 C   0  0  0  0  0  4           0  0  0
   -4.2380   -0.0000    2.8129 C   0  0  0  0  0  4           0  0  0
   -2.7117    0.0000    2.8129 C   0  0  0  0  0  4           0  0  0
   -2.1190   -0.0000    1.4064 C   0  0  0  0  0  4           0  0  0
   -0.5927    0.0000    1.4064 C   0  0  0  0  0  4           0  0  0
    0.0000   -0.0000    0.0000 C   0  0  0  0  0  4           0  0  0
    1.5260   -0.0000   -0.0000 C   0  0  0  0  0  4           0  0  0
    2.1188    0.0000   -1.4064 C   0  0  0  0  0  4           0  0  0
    3.6450    0.0000   -1.4064 C   0  0  0  0  0  4           0  0  0
    4.2378    0.0000   -2.8129 C   0  0  0  0  0  4           0  0  0
    5.7640    0.0000   -2.8129 C   0  0  0  0  0  4           0  0  0
    6.3567    1.2180   -2.1097 C   0  0  0  0  0  4           0  0  0
    7.8830    1.2180   -2.1097 C   0  0  0  0  0  4           0  0  0
    8.4757    2.4360   -1.4064 C   0  0  0  0  0  4           0  0  0
   10.0019    2.4360   -1.4064 C   0  0  0  0  0  4           0  0  0
   10.5947    3.6540   -0.7032 C   0  0  0  0  0  4           0  0  0
   12.1162    3.6530   -0.7039 C   0  0  0  0  0  4           0  0  0
  1  8  1  0     0  0
  2 17  2  0     0  0
  3 18  2  0     0  0
  4 19  2  0     0  0
  5  6  1  0     0  0
  5  9  1  0     0  0
  6 10  2  0     0  0
  7 11  1  0     0  0
  7 17  1  0     0  0
  7 18  1  0     0  0
  8 13  2  0     0  0
  8 14  1  0     0  0
  9 12  2  0     0  0
  9 17  1  0     0  0
 10 12  1  0     0  0
 10 19  1  0     0  0
 11 15  2  0     0  0
 11 16  1  0     0  0
 12 18  1  0     0  0
 13 15  1  0     0  0
 14 16  2  0     0  0
 19 20  1  0     0  0
 20 21  1  0     0  0
 21 22  1  0     0  0
 22 23  1  0     0  0
 23 24  1  0     0  0
 24 25  1  0     0  0
 25 26  1  0     0  0
 26 27  1  0     0  0
 27 28  1  0     0  0
 28 29  1  0     0  0
 29 30  1  0     0  0
 30 31  1  0     0  0
 31 32  1  0     0  0
 32 33  1  0     0  0
 33 34  1  0     0  0
 34 35  1  0     0  0
 35 36  1  0     0  0
M  END
> <standard_type>
IC50

> <# Confs.>
25

> <canonical_smiles>
ClC1=CC=C(N2C(C(C(C(CCCCCCCCCCCCCCCCC)=O)=NN3)=C3C2=O)=O)C=C1

> <standard_relation>
=

> <predicted_activity_value>
6.6777807052660805

> <actual_activity_value>
6.769551078621726

> <Compound>
1

> <publication_ID>
Ma_2018

> <standard_units>
nM

> hash
1119249693851212379

$$$$
6_
XXILIB    08252103493D 0   0.00000     0.00000

 37 39  0     1  0            999 V2000
  -15.0640   -1.0683    7.9360 O   0  0  0  0  0  2           0  0  0
  -10.5065    0.0946    8.5336 O   0  0  0  0  0  2           0  0  0
  -10.1169    0.0363    3.8493 O   0  0  0  0  0  2           0  0  0
   -7.0599   -0.0000    3.0779 O   0  0  0  0  0  2           0  0  0
   -7.4818    0.0357    7.5241 N   0  0  0  0  0  3           0  0  0
   -6.5186    0.0153    6.5719 N   0  0  0  0  0  3           0  0  0
  -10.7643    0.0719    6.1548 N   0  0  2  0  0  3           0  0  0
  -14.3954   -0.4709    6.9111 C   0  0  0  0  0  4           0  0  0
   -8.7162    0.0495    6.9890 C   0  0  0  0  0  4           0  0  0
   -7.1928    0.0155    5.3993 C   0  0  0  0  0  4           0  0  0
  -12.1808    0.0927    6.0365 C   0  0  0  0  0  4           0  0  0
   -8.5733    0.0346    5.6368 C   0  0  0  0  0  4           0  0  0
  -12.9969   -0.4871    7.0234 C   0  0  0  0  0  4           0  0  0
  -14.9899    0.1312    5.8012 C   0  0  0  0  0  4           0  0  0
  -12.7994    0.6915    4.9296 C   0  0  0  0  0  4           0  0  0
  -14.1911    0.7090    4.8150 C   0  0  0  0  0  4           0  0  0
  -10.0820    0.0745    7.3896 C   0  0  0  0  0  4           0  0  0
   -9.8850    0.0469    5.0470 C   0  0  0  0  0  4           0  0  0
   -6.4594   -0.0000    4.1518 C   0  0  0  0  0  4           0  0  0
  -16.4876   -1.0877    7.8856 C   0  0  0  0  0  4           0  0  0
   -4.9437    0.0000    4.1750 C   0  0  0  0  0  4           0  0  0
   -4.3140   -0.0000    2.7832 C   0  0  0  0  0  4           0  0  0
   -2.7866    0.0000    2.7832 C   0  0  0  0  0  4           0  0  0
   -2.1570   -0.0000    1.3916 C   0  0  0  0  0  4           0  0  0
   -0.6296   -0.0000    1.3916 C   0  0  0  0  0  4           0  0  0
    0.0000   -0.0000    0.0000 C   0  0  0  0  0  4           0  0  0
    1.5277   -0.0000    0.0000 C   0  0  0  0  0  4           0  0  0
    2.1573    0.0000   -1.3916 C   0  0  0  0  0  4           0  0  0
    3.6847   -0.0000   -1.3916 C   0  0  0  0  0  4           0  0  0
    4.3143    0.0000   -2.7832 C   0  0  0  0  0  4           0  0  0
    5.8416   -0.0000   -2.7832 C   0  0  0  0  0  4           0  0  0
    6.4712    0.0000   -4.1748 C   0  0  0  0  0  4           0  0  0
    7.9986   -0.0000   -4.1748 C   0  0  0  0  0  4           0  0  0
    8.6282    0.0000   -5.5664 C   0  0  0  0  0  4           0  0  0
   10.1556   -0.0000   -5.5664 C   0  0  0  0  0  4           0  0  0
   10.7852    0.0000   -6.9579 C   0  0  0  0  0  4           0  0  0
   12.3038   -0.0000   -6.8799 C   0  0  0  0  0  4           0  0  0
  1  8  1  0     0  0
  1 20  1  0     0  0
  2 17  2  0     0  0
  3 18  2  0     0  0
  4 19  2  0     0  0
  5  6  1  0     0  0
  5  9  1  0     0  0
  6 10  2  0     0  0
  7 11  1  0     0  0
  7 17  1  0     0  0
  7 18  1  0     0  0
  8 13  2  0     0  0
  8 14  1  0     0  0
  9 12  2  0     0  0
  9 17  1  0     0  0
 10 12  1  0     0  0
 10 19  1  0     0  0
 11 13  1  0     0  0
 11 15  2  0     0  0
 12 18  1  0     0  0
 14 16  2  0     0  0
 15 16  1  0     0  0
 19 21  1  0     0  0
 21 22  1  0     0  0
 22 23  1  0     0  0
 23 24  1  0     0  0
 24 25  1  0     0  0
 25 26  1  0     0  0
 26 27  1  0     0  0
 27 28  1  0     0  0
 28 29  1  0     0  0
 29 30  1  0     0  0
 30 31  1  0     0  0
 31 32  1  0     0  0
 32 33  1  0     0  0
 33 34  1  0     0  0
 34 35  1  0     0  0
 35 36  1  0     0  0
 36 37  1  0     0  0
M  END
> <standard_type>
IC50

> <# Confs.>
25

> <canonical_smiles>
O=C1C2=C(C(C(CCCCCCCCCCCCCCCCC)=O)=NN2)C(N1C3=CC=CC(OC)=C3)=O

> <standard_relation>
=

> <predicted_activity_value>
6.619788758288394

> <actual_activity_value>
6.2839966563652006

> <Compound>
6

> <publication_ID>
nan

> <standard_units>
nM

> hash
7505586458437048816

$$$$
6_
XXILIB    08252103493D 0   0.00000     0.00000

 37 39  0     1  0            999 V2000
  -15.0261    1.3788    7.9123 O   0  0  0  0  0  2           0  0  0
  -10.5065    0.0946    8.5336 O   0  0  0  0  0  2           0  0  0
  -10.1169    0.0363    3.8493 O   0  0  0  0  0  2           0  0  0
   -7.0599   -0.0000    3.0779 O   0  0  0  0  0  2           0  0  0
   -7.4818    0.0357    7.5241 N   0  0  0  0  0  3           0  0  0
   -6.5186    0.0153    6.5719 N   0  0  0  0  0  3           0  0  0
  -10.7643    0.0719    6.1548 N   0  0  2  0  0  3           0  0  0
  -14.3767    0.7408    6.8997 C   0  0  0  0  0  4           0  0  0
   -8.7162    0.0495    6.9890 C   0  0  0  0  0  4           0  0  0
   -7.1928    0.0155    5.3993 C   0  0  0  0  0  4           0  0  0
  -12.1808    0.0927    6.0365 C   0  0  0  0  0  4           0  0  0
   -8.5733    0.0346    5.6368 C   0  0  0  0  0  4           0  0  0
  -12.9781    0.7185    7.0105 C   0  0  0  0  0  4           0  0  0
  -14.9901    0.1320    5.8038 C   0  0  0  0  0  4           0  0  0
  -12.8183   -0.5132    4.9443 C   0  0  0  0  0  4           0  0  0
  -14.2101   -0.4928    4.8314 C   0  0  0  0  0  4           0  0  0
  -10.0820    0.0745    7.3896 C   0  0  0  0  0  4           0  0  0
   -9.8850    0.0469    5.0470 C   0  0  0  0  0  4           0  0  0
   -6.4594   -0.0000    4.1518 C   0  0  0  0  0  4           0  0  0
  -16.4487    1.4387    7.8627 C   0  0  0  0  0  4           0  0  0
   -4.9437    0.0000    4.1750 C   0  0  0  0  0  4           0  0  0
   -4.3140   -0.0000    2.7832 C   0  0  0  0  0  4           0  0  0
   -2.7866    0.0000    2.7832 C   0  0  0  0  0  4           0  0  0
   -2.1570   -0.0000    1.3916 C   0  0  0  0  0  4           0  0  0
   -0.6296   -0.0000    1.3916 C   0  0  0  0  0  4           0  0  0
    0.0000   -0.0000    0.0000 C   0  0  0  0  0  4           0  0  0
    1.5277   -0.0000    0.0000 C   0  0  0  0  0  4           0  0  0
    2.1573    0.0000   -1.3916 C   0  0  0  0  0  4           0  0  0
    3.6847   -0.0000   -1.3916 C   0  0  0  0  0  4           0  0  0
    4.3143    0.0000   -2.7832 C   0  0  0  0  0  4           0  0  0
    5.8416   -0.0000   -2.7832 C   0  0  0  0  0  4           0  0  0
    6.4712    0.0000   -4.1748 C   0  0  0  0  0  4           0  0  0
    7.9986   -0.0000   -4.1748 C   0  0  0  0  0  4           0  0  0
    8.6282    0.0000   -5.5664 C   0  0  0  0  0  4           0  0  0
   10.1556   -0.0000   -5.5664 C   0  0  0  0  0  4           0  0  0
   10.7852    0.0000   -6.9579 C   0  0  0  0  0  4           0  0  0
   12.3038   -0.0000   -6.8799 C   0  0  0  0  0  4           0  0  0
  1  8  1  0     0  0
  1 20  1  0     0  0
  2 17  2  0     0  0
  3 18  2  0     0  0
  4 19  2  0     0  0
  5  6  1  0     0  0
  5  9  1  0     0  0
  6 10  2  0     0  0
  7 11  1  0     0  0
  7 17  1  0     0  0
  7 18  1  0     0  0
  8 13  2  0     0  0
  8 14  1  0     0  0
  9 12  2  0     0  0
  9 17  1  0     0  0
 10 12  1  0     0  0
 10 19  1  0     0  0
 11 13  1  0     0  0
 11 15  2  0     0  0
 12 18  1  0     0  0
 14 16  2  0     0  0
 15 16  1  0     0  0
 19 21  1  0     0  0
 21 22  1  0     0  0
 22 23  1  0     0  0
 23 24  1  0     0  0
 24 25  1  0     0  0
 25 26  1  0     0  0
 26 27  1  0     0  0
 27 28  1  0     0  0
 28 29  1  0     0  0
 29 30  1  0     0  0
 30 31  1  0     0  0
 31 32  1  0     0  0
 32 33  1  0     0  0
 33 34  1  0     0  0
 34 35  1  0     0  0
 35 36  1  0     0  0
 36 37  1  0     0  0
M  END
> <standard_type>
IC50

> <# Confs.>
25

> <canonical_smiles>
O=C1C2=C(C(C(CCCCCCCCCCCCCCCCC)=O)=NN2)C(N1C3=CC=CC(OC)=C3)=O

> <standard_relation>
=

> <predicted_activity_value>
6.619788758288394

> <actual_activity_value>
6.2839966563652006

> <Compound>
6

> <publication_ID>
nan

> <standard_units>
nM

> hash
7505586458437048816

$$$$
6_
XXILIB    08252103493D 0   0.00000     0.00000

 37 39  0     1  0            999 V2000
  -14.6739    1.3325    3.6879 O   0  0  0  0  0  2           0  0  0
  -10.5065    0.0946    8.5336 O   0  0  0  0  0  2           0  0  0
  -10.1169    0.0363    3.8493 O   0  0  0  0  0  2           0  0  0
   -7.0599   -0.0000    3.0779 O   0  0  0  0  0  2           0  0  0
   -7.4818    0.0357    7.5241 N   0  0  0  0  0  3           0  0  0
   -6.5186    0.0153    6.5719 N   0  0  0  0  0  3           0  0  0
  -10.7643    0.0719    6.1548 N   0  0  2  0  0  3           0  0  0
  -14.2023    0.7183    4.8080 C   0  0  0  0  0  4           0  0  0
   -8.7162    0.0495    6.9890 C   0  0  0  0  0  4           0  0  0
   -7.1928    0.0155    5.3993 C   0  0  0  0  0  4           0  0  0
  -12.1808    0.0927    6.0365 C   0  0  0  0  0  4           0  0  0
   -8.5733    0.0346    5.6368 C   0  0  0  0  0  4           0  0  0
  -12.8046    0.6935    4.9293 C   0  0  0  0  0  4           0  0  0
  -14.9899    0.1365    5.8025 C   0  0  0  0  0  4           0  0  0
  -12.9916   -0.4852    7.0239 C   0  0  0  0  0  4           0  0  0
  -14.3829   -0.4619    6.9060 C   0  0  0  0  0  4           0  0  0
  -10.0820    0.0745    7.3896 C   0  0  0  0  0  4           0  0  0
   -9.8850    0.0469    5.0470 C   0  0  0  0  0  4           0  0  0
   -6.4594   -0.0000    4.1518 C   0  0  0  0  0  4           0  0  0
  -16.0850    1.3935    3.5014 C   0  0  0  0  0  4           0  0  0
   -4.9437    0.0000    4.1750 C   0  0  0  0  0  4           0  0  0
   -4.3140   -0.0000    2.7832 C   0  0  0  0  0  4           0  0  0
   -2.7866    0.0000    2.7832 C   0  0  0  0  0  4           0  0  0
   -2.1570   -0.0000    1.3916 C   0  0  0  0  0  4           0  0  0
   -0.6296   -0.0000    1.3916 C   0  0  0  0  0  4           0  0  0
    0.0000   -0.0000    0.0000 C   0  0  0  0  0  4           0  0  0
    1.5277   -0.0000    0.0000 C   0  0  0  0  0  4           0  0  0
    2.1573    0.0000   -1.3916 C   0  0  0  0  0  4           0  0  0
    3.6847   -0.0000   -1.3916 C   0  0  0  0  0  4           0  0  0
    4.3143    0.0000   -2.7832 C   0  0  0  0  0  4           0  0  0
    5.8416   -0.0000   -2.7832 C   0  0  0  0  0  4           0  0  0
    6.4712    0.0000   -4.1748 C   0  0  0  0  0  4           0  0  0
    7.9986   -0.0000   -4.1748 C   0  0  0  0  0  4           0  0  0
    8.6282    0.0000   -5.5664 C   0  0  0  0  0  4           0  0  0
   10.1556   -0.0000   -5.5664 C   0  0  0  0  0  4           0  0  0
   10.7852    0.0000   -6.9579 C   0  0  0  0  0  4           0  0  0
   12.3038   -0.0000   -6.8799 C   0  0  0  0  0  4           0  0  0
  1  8  1  0     0  0
  1 20  1  0     0  0
  2 17  2  0     0  0
  3 18  2  0     0  0
  4 19  2  0     0  0
  5  6  1  0     0  0
  5  9  1  0     0  0
  6 10  2  0     0  0
  7 11  1  0     0  0
  7 17  1  0     0  0
  7 18  1  0     0  0
  8 13  2  0     0  0
  8 14  1  0     0  0
  9 12  2  0     0  0
  9 17  1  0     0  0
 10 12  1  0     0  0
 10 19  1  0     0  0
 11 13  1  0     0  0
 11 15  2  0     0  0
 12 18  1  0     0  0
 14 16  2  0     0  0
 15 16  1  0     0  0
 19 21  1  0     0  0
 21 22  1  0     0  0
 22 23  1  0     0  0
 23 24  1  0     0  0
 24 25  1  0     0  0
 25 26  1  0     0  0
 26 27  1  0     0  0
 27 28  1  0     0  0
 28 29  1  0     0  0
 29 30  1  0     0  0
 30 31  1  0     0  0
 31 32  1  0     0  0
 32 33  1  0     0  0
 33 34  1  0     0  0
 34 35  1  0     0  0
 35 36  1  0     0  0
 36 37  1  0     0  0
M  END
> <standard_type>
IC50

> <# Confs.>
25

> <canonical_smiles>
O=C1C2=C(C(C(CCCCCCCCCCCCCCCCC)=O)=NN2)C(N1C3=CC=CC(OC)=C3)=O

> <standard_relation>
=

> <predicted_activity_value>
6.619788758288394

> <actual_activity_value>
6.2839966563652006

> <Compound>
6

> <publication_ID>
nan

> <standard_units>
nM

> hash
7505586458437048816

$$$$
6_
XXILIB    08252103493D 0   0.00000     0.00000

 37 39  0     1  0            999 V2000
  -14.7118   -1.1147    3.7116 O   0  0  0  0  0  2           0  0  0
  -10.5065    0.0946    8.5336 O   0  0  0  0  0  2           0  0  0
  -10.1169    0.0363    3.8493 O   0  0  0  0  0  2           0  0  0
   -7.0599   -0.0000    3.0779 O   0  0  0  0  0  2           0  0  0
   -7.4818    0.0357    7.5241 N   0  0  0  0  0  3           0  0  0
   -6.5186    0.0153    6.5719 N   0  0  0  0  0  3           0  0  0
  -10.7643    0.0719    6.1548 N   0  0  2  0  0  3           0  0  0
  -14.2210   -0.4933    4.8194 C   0  0  0  0  0  4           0  0  0
   -8.7162    0.0495    6.9890 C   0  0  0  0  0  4           0  0  0
   -7.1928    0.0155    5.3993 C   0  0  0  0  0  4           0  0  0
  -12.1808    0.0927    6.0365 C   0  0  0  0  0  4           0  0  0
   -8.5733    0.0346    5.6368 C   0  0  0  0  0  4           0  0  0
  -12.8234   -0.5121    4.9422 C   0  0  0  0  0  4           0  0  0
  -14.9897    0.1358    5.7998 C   0  0  0  0  0  4           0  0  0
  -12.9728    0.7195    7.0093 C   0  0  0  0  0  4           0  0  0
  -14.3639    0.7400    6.8897 C   0  0  0  0  0  4           0  0  0
  -10.0820    0.0745    7.3896 C   0  0  0  0  0  4           0  0  0
   -9.8850    0.0469    5.0470 C   0  0  0  0  0  4           0  0  0
   -6.4594   -0.0000    4.1518 C   0  0  0  0  0  4           0  0  0
  -16.1239   -1.1330    3.5244 C   0  0  0  0  0  4           0  0  0
   -4.9437    0.0000    4.1750 C   0  0  0  0  0  4           0  0  0
   -4.3140   -0.0000    2.7832 C   0  0  0  0  0  4           0  0  0
   -2.7866    0.0000    2.7832 C   0  0  0  0  0  4           0  0  0
   -2.1570   -0.0000    1.3916 C   0  0  0  0  0  4           0  0  0
   -0.6296   -0.0000    1.3916 C   0  0  0  0  0  4           0  0  0
    0.0000   -0.0000    0.0000 C   0  0  0  0  0  4           0  0  0
    1.5277   -0.0000    0.0000 C   0  0  0  0  0  4           0  0  0
    2.1573    0.0000   -1.3916 C   0  0  0  0  0  4           0  0  0
    3.6847   -0.0000   -1.3916 C   0  0  0  0  0  4           0  0  0
    4.3143    0.0000   -2.7832 C   0  0  0  0  0  4           0  0  0
    5.8416   -0.0000   -2.7832 C   0  0  0  0  0  4           0  0  0
    6.4712    0.0000   -4.1748 C   0  0  0  0  0  4           0  0  0
    7.9986   -0.0000   -4.1748 C   0  0  0  0  0  4           0  0  0
    8.6282    0.0000   -5.5664 C   0  0  0  0  0  4           0  0  0
   10.1556   -0.0000   -5.5664 C   0  0  0  0  0  4           0  0  0
   10.7852    0.0000   -6.9579 C   0  0  0  0  0  4           0  0  0
   12.3038   -0.0000   -6.8799 C   0  0  0  0  0  4           0  0  0
  1  8  1  0     0  0
  1 20  1  0     0  0
  2 17  2  0     0  0
  3 18  2  0     0  0
  4 19  2  0     0  0
  5  6  1  0     0  0
  5  9  1  0     0  0
  6 10  2  0     0  0
  7 11  1  0     0  0
  7 17  1  0     0  0
  7 18  1  0     0  0
  8 13  2  0     0  0
  8 14  1  0     0  0
  9 12  2  0     0  0
  9 17  1  0     0  0
 10 12  1  0     0  0
 10 19  1  0     0  0
 11 13  1  0     0  0
 11 15  2  0     0  0
 12 18  1  0     0  0
 14 16  2  0     0  0
 15 16  1  0     0  0
 19 21  1  0     0  0
 21 22  1  0     0  0
 22 23  1  0     0  0
 23 24  1  0     0  0
 24 25  1  0     0  0
 25 26  1  0     0  0
 26 27  1  0     0  0
 27 28  1  0     0  0
 28 29  1  0     0  0
 29 30  1  0     0  0
 30 31  1  0     0  0
 31 32  1  0     0  0
 32 33  1  0     0  0
 33 34  1  0     0  0
 34 35  1  0     0  0
 35 36  1  0     0  0
 36 37  1  0     0  0
M  END
> <standard_type>
IC50

> <# Confs.>
25

> <canonical_smiles>
O=C1C2=C(C(C(CCCCCCCCCCCCCCCCC)=O)=NN2)C(N1C3=CC=CC(OC)=C3)=O

> <standard_relation>
=

> <predicted_activity_value>
6.619788758288394

> <actual_activity_value>
6.2839966563652006

> <Compound>
6

> <publication_ID>
nan

> <standard_units>
nM

> hash
7505586458437048816

$$$$
6_
XXILIB    08252103493D 0   0.00000     0.00000

 37 39  0     1  0            999 V2000
   -1.7144   -5.5662   12.9098 O   0  0  0  0  0  2           0  0  0
   -4.0405   -1.9524   10.9073 O   0  0  0  0  0  2           0  0  0
   -3.6427   -4.2577    6.8299 O   0  0  0  0  0  2           0  0  0
   -4.3067   -2.2783    4.4671 O   0  0  0  0  0  2           0  0  0
   -4.6521   -0.1260    8.3654 N   0  0  0  0  0  3           0  0  0
   -4.7861    0.1024    7.0369 N   0  0  0  0  0  3           0  0  0
   -3.7302   -3.4830    9.0944 N   0  0  2  0  0  3           0  0  0
   -2.3622   -5.7712   11.7297 C   0  0  0  0  0  4           0  0  0
   -4.3037   -1.3998    8.6230 C   0  0  0  0  0  4           0  0  0
   -4.5060   -1.0851    6.4529 C   0  0  0  0  0  4           0  0  0
   -3.3817   -4.6680    9.7981 C   0  0  0  0  0  4           0  0  0
   -4.1985   -2.0418    7.4288 C   0  0  0  0  0  4           0  0  0
   -2.7101   -4.6048   11.0314 C   0  0  0  0  0  4           0  0  0
   -2.6878   -7.0177   11.1929 C   0  0  0  0  0  4           0  0  0
   -3.6984   -5.9309    9.2773 C   0  0  0  0  0  4           0  0  0
   -3.3532   -7.0934    9.9699 C   0  0  0  0  0  4           0  0  0
   -4.0208   -2.2550    9.7252 C   0  0  0  0  0  4           0  0  0
   -3.8239   -3.4067    7.6850 C   0  0  0  0  0  4           0  0  0
   -4.5590   -1.2043    5.0116 C   0  0  0  0  0  4           0  0  0
   -1.3318   -6.7082   13.6707 C   0  0  0  0  0  4           0  0  0
   -4.9437    0.0000    4.1750 C   0  0  0  0  0  4           0  0  0
   -4.3140   -0.0000    2.7832 C   0  0  0  0  0  4           0  0  0
   -2.7866    0.0000    2.7832 C   0  0  0  0  0  4           0  0  0
   -2.1570   -0.0000    1.3916 C   0  0  0  0  0  4           0  0  0
   -0.6296   -0.0000    1.3916 C   0  0  0  0  0  4           0  0  0
    0.0000    0.0000    0.0000 C   0  0  0  0  0  4           0  0  0
    1.5277   -0.0000    0.0000 C   0  0  0  0  0  4           0  0  0
    2.1573    0.0000   -1.3916 C   0  0  0  0  0  4           0  0  0
    3.6847   -0.0000   -1.3916 C   0  0  0  0  0  4           0  0  0
    4.3143    0.0000   -2.7832 C   0  0  0  0  0  4           0  0  0
    5.8416   -0.0000   -2.7832 C   0  0  0  0  0  4           0  0  0
    6.4712    0.0000   -4.1748 C   0  0  0  0  0  4           0  0  0
    7.9986   -0.0000   -4.1748 C   0  0  0  0  0  4           0  0  0
    8.6282    0.0000   -5.5664 C   0  0  0  0  0  4           0  0  0
   10.1556   -0.0000   -5.5664 C   0  0  0  0  0  4           0  0  0
   10.7852    0.0000   -6.9579 C   0  0  0  0  0  4           0  0  0
   12.3038   -0.0000   -6.8799 C   0  0  0  0  0  4           0  0  0
  1  8  1  0     0  0
  1 20  1  0     0  0
  2 17  2  0     0  0
  3 18  2  0     0  0
  4 19  2  0     0  0
  5  6  1  0     0  0
  5  9  1  0     0  0
  6 10  2  0     0  0
  7 11  1  0     0  0
  7 17  1  0     0  0
  7 18  1  0     0  0
  8 13  2  0     0  0
  8 14  1  0     0  0
  9 12  2  0     0  0
  9 17  1  0     0  0
 10 12  1  0     0  0
 10 19  1  0     0  0
 11 13  1  0     0  0
 11 15  2  0     0  0
 12 18  1  0     0  0
 14 16  2  0     0  0
 15 16  1  0     0  0
 19 21  1  0     0  0
 21 22  1  0     0  0
 22 23  1  0     0  0
 23 24  1  0     0  0
 24 25  1  0     0  0
 25 26  1  0     0  0
 26 27  1  0     0  0
 27 28  1  0     0  0
 28 29  1  0     0  0
 29 30  1  0     0  0
 30 31  1  0     0  0
 31 32  1  0     0  0
 32 33  1  0     0  0
 33 34  1  0     0  0
 34 35  1  0     0  0
 35 36  1  0     0  0
 36 37  1  0     0  0
M  END
> <standard_type>
IC50

> <# Confs.>
25

> <canonical_smiles>
O=C1C2=C(C(C(CCCCCCCCCCCCCCCCC)=O)=NN2)C(N1C3=CC=CC(OC)=C3)=O

> <standard_relation>
=

> <predicted_activity_value>
6.619788758288394

> <actual_activity_value>
6.2839966563652006

> <Compound>
6

> <publication_ID>
nan

> <standard_units>
nM

> hash
7505586458437048816

$$$$
6_
XXILIB    08252103493D 0   0.00000     0.00000

 37 39  0     1  0            999 V2000
  -15.0640    4.9966    1.1320 O   0  0  0  0  0  2           0  0  0
  -10.5065    4.9327   -0.1740 O   0  0  0  0  0  2           0  0  0
  -10.1169    0.9051    2.2187 O   0  0  0  0  0  2           0  0  0
   -7.0599    0.2553    2.6358 O   0  0  0  0  0  2           0  0  0
   -7.4818    4.0880    0.3818 N   0  0  0  0  0  3           0  0  0
   -6.5186    3.2735    0.8756 N   0  0  0  0  0  3           0  0  0
  -10.7643    2.8840    1.0351 N   0  0  2  0  0  3           0  0  0
  -14.3954    3.8103    1.1270 C   0  0  0  0  0  4           0  0  0
   -8.7162    3.6176    0.6374 C   0  0  0  0  0  4           0  0  0
   -7.1928    2.2579    1.4618 C   0  0  0  0  0  4           0  0  0
  -12.1808    2.7711    1.0763 C   0  0  0  0  0  4           0  0  0
   -8.5733    2.4540    1.3264 C   0  0  0  0  0  4           0  0  0
  -12.9969    3.9157    1.0849 C   0  0  0  0  0  4           0  0  0
  -14.9899    2.5481    1.1606 C   0  0  0  0  0  4           0  0  0
  -12.7994    1.5131    1.1111 C   0  0  0  0  0  4           0  0  0
  -14.1911    1.4051    1.1533 C   0  0  0  0  0  4           0  0  0
  -10.0820    3.9520    0.4154 C   0  0  0  0  0  4           0  0  0
   -9.8850    1.9371    1.6107 C   0  0  0  0  0  4           0  0  0
   -6.4594    1.1852    2.0989 C   0  0  0  0  0  4           0  0  0
  -16.4876    4.9627    1.1740 C   0  0  0  0  0  4           0  0  0
   -4.9437    1.2054    2.0873 C   0  0  0  0  0  4           0  0  0
   -4.3140    0.0000    2.7832 C   0  0  0  0  0  4           0  0  0
   -2.7866    0.0000    2.7832 C   0  0  0  0  0  4           0  0  0
   -2.1570    0.0000    1.3916 C   0  0  0  0  0  4           0  0  0
   -0.6296    0.0000    1.3916 C   0  0  0  0  0  4           0  0  0
    0.0000    0.0000    0.0000 C   0  0  0  0  0  4           0  0  0
    1.5277   -0.0000    0.0000 C   0  0  0  0  0  4           0  0  0
    2.1573    0.0000   -1.3916 C   0  0  0  0  0  4           0  0  0
    3.6847   -0.0000   -1.3916 C   0  0  0  0  0  4           0  0  0
    4.3143    0.0000   -2.7832 C   0  0  0  0  0  4           0  0  0
    5.8416   -0.0000   -2.7832 C   0  0  0  0  0  4           0  0  0
    6.4712    0.0000   -4.1748 C   0  0  0  0  0  4           0  0  0
    7.9986   -0.0000   -4.1748 C   0  0  0  0  0  4           0  0  0
    8.6282    0.0000   -5.5664 C   0  0  0  0  0  4           0  0  0
   10.1556   -0.0000   -5.5664 C   0  0  0  0  0  4           0  0  0
   10.7852    0.0000   -6.9579 C   0  0  0  0  0  4           0  0  0
   12.3038   -0.0000   -6.8799 C   0  0  0  0  0  4           0  0  0
  1  8  1  0     0  0
  1 20  1  0     0  0
  2 17  2  0     0  0
  3 18  2  0     0  0
  4 19  2  0     0  0
  5  6  1  0     0  0
  5  9  1  0     0  0
  6 10  2  0     0  0
  7 11  1  0     0  0
  7 17  1  0     0  0
  7 18  1  0     0  0
  8 13  2  0     0  0
  8 14  1  0     0  0
  9 12  2  0     0  0
  9 17  1  0     0  0
 10 12  1  0     0  0
 10 19  1  0     0  0
 11 13  1  0     0  0
 11 15  2  0     0  0
 12 18  1  0     0  0
 14 16  2  0     0  0
 15 16  1  0     0  0
 19 21  1  0     0  0
 21 22  1  0     0  0
 22 23  1  0     0  0
 23 24  1  0     0  0
 24 25  1  0     0  0
 25 26  1  0     0  0
 26 27  1  0     0  0
 27 28  1  0     0  0
 28 29  1  0     0  0
 29 30  1  0     0  0
 30 31  1  0     0  0
 31 32  1  0     0  0
 32 33  1  0     0  0
 33 34  1  0     0  0
 34 35  1  0     0  0
 35 36  1  0     0  0
 36 37  1  0     0  0
M  END
> <standard_type>
IC50

> <# Confs.>
25

> <canonical_smiles>
O=C1C2=C(C(C(CCCCCCCCCCCCCCCCC)=O)=NN2)C(N1C3=CC=CC(OC)=C3)=O

> <standard_relation>
=

> <predicted_activity_value>
6.619788758288394

> <actual_activity_value>
6.2839966563652006

> <Compound>
6

> <publication_ID>
nan

> <standard_units>
nM

> hash
7505586458437048816

$$$$
6_
XXILIB    08252103493D 0   0.00000     0.00000

 37 39  0     1  0            999 V2000
   -4.0785   -6.1875   13.0345 O   0  0  0  0  0  2           0  0  0
   -4.0405   -1.9524   10.9073 O   0  0  0  0  0  2           0  0  0
   -3.6427   -4.2577    6.8299 O   0  0  0  0  0  2           0  0  0
   -4.3067   -2.2783    4.4671 O   0  0  0  0  0  2           0  0  0
   -4.6521   -0.1260    8.3654 N   0  0  0  0  0  3           0  0  0
   -4.7861    0.1024    7.0369 N   0  0  0  0  0  3           0  0  0
   -3.7302   -3.4830    9.0944 N   0  0  2  0  0  3           0  0  0
   -3.5328   -6.0786   11.7917 C   0  0  0  0  0  4           0  0  0
   -4.3037   -1.3998    8.6230 C   0  0  0  0  0  4           0  0  0
   -4.5060   -1.0851    6.4529 C   0  0  0  0  0  4           0  0  0
   -3.3817   -4.6680    9.7981 C   0  0  0  0  0  4           0  0  0
   -4.1985   -2.0418    7.4288 C   0  0  0  0  0  4           0  0  0
   -3.8747   -4.9115   11.0918 C   0  0  0  0  0  4           0  0  0
   -2.6888   -7.0165   11.1953 C   0  0  0  0  0  4           0  0  0
   -2.5347   -5.6236    9.2185 C   0  0  0  0  0  4           0  0  0
   -2.1925   -6.7860    9.9127 C   0  0  0  0  0  4           0  0  0
   -4.0208   -2.2550    9.7252 C   0  0  0  0  0  4           0  0  0
   -3.8239   -3.4067    7.6850 C   0  0  0  0  0  4           0  0  0
   -4.5590   -1.2043    5.0116 C   0  0  0  0  0  4           0  0  0
   -3.7726   -7.3489   13.8008 C   0  0  0  0  0  4           0  0  0
   -4.9437    0.0000    4.1750 C   0  0  0  0  0  4           0  0  0
   -4.3140   -0.0000    2.7832 C   0  0  0  0  0  4           0  0  0
   -2.7866    0.0000    2.7832 C   0  0  0  0  0  4           0  0  0
   -2.1570   -0.0000    1.3916 C   0  0  0  0  0  4           0  0  0
   -0.6296   -0.0000    1.3916 C   0  0  0  0  0  4           0  0  0
    0.0000    0.0000    0.0000 C   0  0  0  0  0  4           0  0  0
    1.5277   -0.0000    0.0000 C   0  0  0  0  0  4           0  0  0
    2.1573    0.0000   -1.3916 C   0  0  0  0  0  4           0  0  0
    3.6847   -0.0000   -1.3916 C   0  0  0  0  0  4           0  0  0
    4.3143    0.0000   -2.7832 C   0  0  0  0  0  4           0  0  0
    5.8416   -0.0000   -2.7832 C   0  0  0  0  0  4           0  0  0
    6.4712    0.0000   -4.1748 C   0  0  0  0  0  4           0  0  0
    7.9986   -0.0000   -4.1748 C   0  0  0  0  0  4           0  0  0
    8.6282    0.0000   -5.5664 C   0  0  0  0  0  4           0  0  0
   10.1556   -0.0000   -5.5664 C   0  0  0  0  0  4           0  0  0
   10.7852    0.0000   -6.9579 C   0  0  0  0  0  4           0  0  0
   12.3038   -0.0000   -6.8799 C   0  0  0  0  0  4           0  0  0
  1  8  1  0     0  0
  1 20  1  0     0  0
  2 17  2  0     0  0
  3 18  2  0     0  0
  4 19  2  0     0  0
  5  6  1  0     0  0
  5  9  1  0     0  0
  6 10  2  0     0  0
  7 11  1  0     0  0
  7 17  1  0     0  0
  7 18  1  0     0  0
  8 13  2  0     0  0
  8 14  1  0     0  0
  9 12  2  0     0  0
  9 17  1  0     0  0
 10 12  1  0     0  0
 10 19  1  0     0  0
 11 13  1  0     0  0
 11 15  2  0     0  0
 12 18  1  0     0  0
 14 16  2  0     0  0
 15 16  1  0     0  0
 19 21  1  0     0  0
 21 22  1  0     0  0
 22 23  1  0     0  0
 23 24  1  0     0  0
 24 25  1  0     0  0
 25 26  1  0     0  0
 26 27  1  0     0  0
 27 28  1  0     0  0
 28 29  1  0     0  0
 29 30  1  0     0  0
 30 31  1  0     0  0
 31 32  1  0     0  0
 32 33  1  0     0  0
 33 34  1  0     0  0
 34 35  1  0     0  0
 35 36  1  0     0  0
 36 37  1  0     0  0
M  END
> <standard_type>
IC50

> <# Confs.>
25

> <canonical_smiles>
O=C1C2=C(C(C(CCCCCCCCCCCCCCCCC)=O)=NN2)C(N1C3=CC=CC(OC)=C3)=O

> <standard_relation>
=

> <predicted_activity_value>
6.619788758288394

> <actual_activity_value>
6.2839966563652006

> <Compound>
6

> <publication_ID>
nan

> <standard_units>
nM

> hash
7505586458437048816

$$$$
6_
XXILIB    08252103493D 0   0.00000     0.00000

 37 39  0     1  0            999 V2000
  -15.0261    3.7525   -0.9755 O   0  0  0  0  0  2           0  0  0
  -10.5065    4.9327   -0.1740 O   0  0  0  0  0  2           0  0  0
  -10.1169    0.9051    2.2187 O   0  0  0  0  0  2           0  0  0
   -7.0599    0.2553    2.6358 O   0  0  0  0  0  2           0  0  0
   -7.4818    4.0880    0.3818 N   0  0  0  0  0  3           0  0  0
   -6.5186    3.2735    0.8756 N   0  0  0  0  0  3           0  0  0
  -10.7643    2.8840    1.0351 N   0  0  2  0  0  3           0  0  0
  -14.3767    3.1946    0.0834 C   0  0  0  0  0  4           0  0  0
   -8.7162    3.6176    0.6374 C   0  0  0  0  0  4           0  0  0
   -7.1928    2.2579    1.4618 C   0  0  0  0  0  4           0  0  0
  -12.1808    2.7711    1.0763 C   0  0  0  0  0  4           0  0  0
   -8.5733    2.4540    1.3264 C   0  0  0  0  0  4           0  0  0
  -12.9781    3.3017    0.0473 C   0  0  0  0  0  4           0  0  0
  -14.9901    2.5499    1.1586 C   0  0  0  0  0  4           0  0  0
  -12.8183    2.1281    2.1471 C   0  0  0  0  0  4           0  0  0
  -14.2101    2.0202    2.1859 C   0  0  0  0  0  4           0  0  0
  -10.0820    3.9520    0.4154 C   0  0  0  0  0  4           0  0  0
   -9.8850    1.9371    1.6107 C   0  0  0  0  0  4           0  0  0
   -6.4594    1.1852    2.0989 C   0  0  0  0  0  4           0  0  0
  -16.4487    3.6796   -1.0025 C   0  0  0  0  0  4           0  0  0
   -4.9437    1.2054    2.0873 C   0  0  0  0  0  4           0  0  0
   -4.3140    0.0000    2.7832 C   0  0  0  0  0  4           0  0  0
   -2.7866    0.0000    2.7832 C   0  0  0  0  0  4           0  0  0
   -2.1570    0.0000    1.3916 C   0  0  0  0  0  4           0  0  0
   -0.6296    0.0000    1.3916 C   0  0  0  0  0  4           0  0  0
    0.0000    0.0000    0.0000 C   0  0  0  0  0  4           0  0  0
    1.5277   -0.0000    0.0000 C   0  0  0  0  0  4           0  0  0
    2.1573    0.0000   -1.3916 C   0  0  0  0  0  4           0  0  0
    3.6847   -0.0000   -1.3916 C   0  0  0  0  0  4           0  0  0
    4.3143    0.0000   -2.7832 C   0  0  0  0  0  4           0  0  0
    5.8416   -0.0000   -2.7832 C   0  0  0  0  0  4           0  0  0
    6.4712    0.0000   -4.1748 C   0  0  0  0  0  4           0  0  0
    7.9986   -0.0000   -4.1748 C   0  0  0  0  0  4           0  0  0
    8.6282    0.0000   -5.5664 C   0  0  0  0  0  4           0  0  0
   10.1556   -0.0000   -5.5664 C   0  0  0  0  0  4           0  0  0
   10.7852    0.0000   -6.9579 C   0  0  0  0  0  4           0  0  0
   12.3038   -0.0000   -6.8799 C   0  0  0  0  0  4           0  0  0
  1  8  1  0     0  0
  1 20  1  0     0  0
  2 17  2  0     0  0
  3 18  2  0     0  0
  4 19  2  0     0  0
  5  6  1  0     0  0
  5  9  1  0     0  0
  6 10  2  0     0  0
  7 11  1  0     0  0
  7 17  1  0     0  0
  7 18  1  0     0  0
  8 13  2  0     0  0
  8 14  1  0     0  0
  9 12  2  0     0  0
  9 17  1  0     0  0
 10 12  1  0     0  0
 10 19  1  0     0  0
 11 13  1  0     0  0
 11 15  2  0     0  0
 12 18  1  0     0  0
 14 16  2  0     0  0
 15 16  1  0     0  0
 19 21  1  0     0  0
 21 22  1  0     0  0
 22 23  1  0     0  0
 23 24  1  0     0  0
 24 25  1  0     0  0
 25 26  1  0     0  0
 26 27  1  0     0  0
 27 28  1  0     0  0
 28 29  1  0     0  0
 29 30  1  0     0  0
 30 31  1  0     0  0
 31 32  1  0     0  0
 32 33  1  0     0  0
 33 34  1  0     0  0
 34 35  1  0     0  0
 35 36  1  0     0  0
 36 37  1  0     0  0
M  END
> <standard_type>
IC50

> <# Confs.>
25

> <canonical_smiles>
O=C1C2=C(C(C(CCCCCCCCCCCCCCCCC)=O)=NN2)C(N1C3=CC=CC(OC)=C3)=O

> <standard_relation>
=

> <predicted_activity_value>
6.619788758288394

> <actual_activity_value>
6.2839966563652006

> <Compound>
6

> <publication_ID>
nan

> <standard_units>
nM

> hash
7505586458437048816

$$$$
6_
XXILIB    08252103493D 0   0.00000     0.00000

 37 39  0     1  0            999 V2000
  -15.0640   -3.9283   -0.7184 O   0  0  0  0  0  2           0  0  0
  -10.5065   -5.0273   -0.0101 O   0  0  0  0  0  2           0  0  0
  -10.1169   -0.9414    2.2815 O   0  0  0  0  0  2           0  0  0
   -7.0599   -0.2553    2.6358 O   0  0  0  0  0  2           0  0  0
   -7.4818   -4.1236    0.4436 N   0  0  0  0  0  3           0  0  0
   -6.5186   -3.2888    0.9020 N   0  0  0  0  0  3           0  0  0
  -10.7643   -2.9559    1.1596 N   0  0  2  0  0  3           0  0  0
  -14.3954   -3.3394    0.3114 C   0  0  0  0  0  4           0  0  0
   -8.7162   -3.6671    0.7231 C   0  0  0  0  0  4           0  0  0
   -7.1928   -2.2733    1.4885 C   0  0  0  0  0  4           0  0  0
  -12.1808   -2.8638    1.2368 C   0  0  0  0  0  4           0  0  0
   -8.5733   -2.4886    1.3864 C   0  0  0  0  0  4           0  0  0
  -12.9969   -3.4286    0.2413 C   0  0  0  0  0  4           0  0  0
  -14.9899   -2.6793    1.3878 C   0  0  0  0  0  4           0  0  0
  -12.7994   -2.2046    2.3089 C   0  0  0  0  0  4           0  0  0
  -14.1911   -2.1141    2.3812 C   0  0  0  0  0  4           0  0  0
  -10.0820   -4.0266    0.5445 C   0  0  0  0  0  4           0  0  0
   -9.8850   -1.9840    1.6919 C   0  0  0  0  0  4           0  0  0
   -6.4594   -1.1852    2.0989 C   0  0  0  0  0  4           0  0  0
  -16.4876   -3.8750   -0.7100 C   0  0  0  0  0  4           0  0  0
   -4.9437   -1.2054    2.0873 C   0  0  0  0  0  4           0  0  0
   -4.3140   -0.0000    2.7832 C   0  0  0  0  0  4           0  0  0
   -2.7866    0.0000    2.7832 C   0  0  0  0  0  4           0  0  0
   -2.1570    0.0000    1.3916 C   0  0  0  0  0  4           0  0  0
   -0.6296   -0.0000    1.3916 C   0  0  0  0  0  4           0  0  0
    0.0000    0.0000    0.0000 C   0  0  0  0  0  4           0  0  0
    1.5277   -0.0000    0.0000 C   0  0  0  0  0  4           0  0  0
    2.1573    0.0000   -1.3916 C   0  0  0  0  0  4           0  0  0
    3.6847   -0.0000   -1.3916 C   0  0  0  0  0  4           0  0  0
    4.3143    0.0000   -2.7832 C   0  0  0  0  0  4           0  0  0
    5.8416   -0.0000   -2.7832 C   0  0  0  0  0  4           0  0  0
    6.4712    0.0000   -4.1748 C   0  0  0  0  0  4           0  0  0
    7.9986   -0.0000   -4.1748 C   0  0  0  0  0  4           0  0  0
    8.6282    0.0000   -5.5664 C   0  0  0  0  0  4           0  0  0
   10.1556   -0.0000   -5.5664 C   0  0  0  0  0  4           0  0  0
   10.7852    0.0000   -6.9579 C   0  0  0  0  0  4           0  0  0
   12.3038   -0.0000   -6.8799 C   0  0  0  0  0  4           0  0  0
  1  8  1  0     0  0
  1 20  1  0     0  0
  2 17  2  0     0  0
  3 18  2  0     0  0
  4 19  2  0     0  0
  5  6  1  0     0  0
  5  9  1  0     0  0
  6 10  2  0     0  0
  7 11  1  0     0  0
  7 17  1  0     0  0
  7 18  1  0     0  0
  8 13  2  0     0  0
  8 14  1  0     0  0
  9 12  2  0     0  0
  9 17  1  0     0  0
 10 12  1  0     0  0
 10 19  1  0     0  0
 11 13  1  0     0  0
 11 15  2  0     0  0
 12 18  1  0     0  0
 14 16  2  0     0  0
 15 16  1  0     0  0
 19 21  1  0     0  0
 21 22  1  0     0  0
 22 23  1  0     0  0
 23 24  1  0     0  0
 24 25  1  0     0  0
 25 26  1  0     0  0
 26 27  1  0     0  0
 27 28  1  0     0  0
 28 29  1  0     0  0
 29 30  1  0     0  0
 30 31  1  0     0  0
 31 32  1  0     0  0
 32 33  1  0     0  0
 33 34  1  0     0  0
 34 35  1  0     0  0
 35 36  1  0     0  0
 36 37  1  0     0  0
M  END
> <standard_type>
IC50

> <# Confs.>
25

> <canonical_smiles>
O=C1C2=C(C(C(CCCCCCCCCCCCCCCCC)=O)=NN2)C(N1C3=CC=CC(OC)=C3)=O

> <standard_relation>
=

> <predicted_activity_value>
6.619788758288394

> <actual_activity_value>
6.2839966563652006

> <Compound>
6

> <publication_ID>
nan

> <standard_units>
nM

> hash
7505586458437048816

$$$$
6_
XXILIB    08252103493D 0   0.00000     0.00000

 37 39  0     1  0            999 V2000
  -15.0261   -5.1313    1.4128 O   0  0  0  0  0  2           0  0  0
  -10.5065   -5.0273   -0.0101 O   0  0  0  0  0  2           0  0  0
  -10.1169   -0.9414    2.2815 O   0  0  0  0  0  2           0  0  0
   -7.0599   -0.2553    2.6358 O   0  0  0  0  0  2           0  0  0
   -7.4818   -4.1236    0.4436 N   0  0  0  0  0  3           0  0  0
   -6.5186   -3.2888    0.9020 N   0  0  0  0  0  3           0  0  0
  -10.7643   -2.9559    1.1596 N   0  0  2  0  0  3           0  0  0
  -14.3767   -3.9354    1.3665 C   0  0  0  0  0  4           0  0  0
   -8.7162   -3.6671    0.7231 C   0  0  0  0  0  4           0  0  0
   -7.1928   -2.2733    1.4885 C   0  0  0  0  0  4           0  0  0
  -12.1808   -2.8638    1.2368 C   0  0  0  0  0  4           0  0  0
   -8.5733   -2.4886    1.3864 C   0  0  0  0  0  4           0  0  0
  -12.9781   -4.0202    1.2918 C   0  0  0  0  0  4           0  0  0
  -14.9901   -2.6819    1.3872 C   0  0  0  0  0  4           0  0  0
  -12.8183   -1.6149    1.2582 C   0  0  0  0  0  4           0  0  0
  -14.2101   -1.5274    1.3323 C   0  0  0  0  0  4           0  0  0
  -10.0820   -4.0266    0.5445 C   0  0  0  0  0  4           0  0  0
   -9.8850   -1.9840    1.6919 C   0  0  0  0  0  4           0  0  0
   -6.4594   -1.1852    2.0989 C   0  0  0  0  0  4           0  0  0
  -16.4487   -5.1183    1.4894 C   0  0  0  0  0  4           0  0  0
   -4.9437   -1.2054    2.0873 C   0  0  0  0  0  4           0  0  0
   -4.3140   -0.0000    2.7832 C   0  0  0  0  0  4           0  0  0
   -2.7866    0.0000    2.7832 C   0  0  0  0  0  4           0  0  0
   -2.1570    0.0000    1.3916 C   0  0  0  0  0  4           0  0  0
   -0.6296   -0.0000    1.3916 C   0  0  0  0  0  4           0  0  0
    0.0000    0.0000    0.0000 C   0  0  0  0  0  4           0  0  0
    1.5277   -0.0000    0.0000 C   0  0  0  0  0  4           0  0  0
    2.1573    0.0000   -1.3916 C   0  0  0  0  0  4           0  0  0
    3.6847   -0.0000   -1.3916 C   0  0  0  0  0  4           0  0  0
    4.3143    0.0000   -2.7832 C   0  0  0  0  0  4           0  0  0
    5.8416   -0.0000   -2.7832 C   0  0  0  0  0  4           0  0  0
    6.4712    0.0000   -4.1748 C   0  0  0  0  0  4           0  0  0
    7.9986   -0.0000   -4.1748 C   0  0  0  0  0  4           0  0  0
    8.6282    0.0000   -5.5664 C   0  0  0  0  0  4           0  0  0
   10.1556   -0.0000   -5.5664 C   0  0  0  0  0  4           0  0  0
   10.7852    0.0000   -6.9579 C   0  0  0  0  0  4           0  0  0
   12.3038   -0.0000   -6.8799 C   0  0  0  0  0  4           0  0  0
  1  8  1  0     0  0
  1 20  1  0     0  0
  2 17  2  0     0  0
  3 18  2  0     0  0
  4 19  2  0     0  0
  5  6  1  0     0  0
  5  9  1  0     0  0
  6 10  2  0     0  0
  7 11  1  0     0  0
  7 17  1  0     0  0
  7 18  1  0     0  0
  8 13  2  0     0  0
  8 14  1  0     0  0
  9 12  2  0     0  0
  9 17  1  0     0  0
 10 12  1  0     0  0
 10 19  1  0     0  0
 11 13  1  0     0  0
 11 15  2  0     0  0
 12 18  1  0     0  0
 14 16  2  0     0  0
 15 16  1  0     0  0
 19 21  1  0     0  0
 21 22  1  0     0  0
 22 23  1  0     0  0
 23 24  1  0     0  0
 24 25  1  0     0  0
 25 26  1  0     0  0
 26 27  1  0     0  0
 27 28  1  0     0  0
 28 29  1  0     0  0
 29 30  1  0     0  0
 30 31  1  0     0  0
 31 32  1  0     0  0
 32 33  1  0     0  0
 33 34  1  0     0  0
 34 35  1  0     0  0
 35 36  1  0     0  0
 36 37  1  0     0  0
M  END
> <standard_type>
IC50

> <# Confs.>
25

> <canonical_smiles>
O=C1C2=C(C(C(CCCCCCCCCCCCCCCCC)=O)=NN2)C(N1C3=CC=CC(OC)=C3)=O

> <standard_relation>
=

> <predicted_activity_value>
6.619788758288394

> <actual_activity_value>
6.2839966563652006

> <Compound>
6

> <publication_ID>
nan

> <standard_units>
nM

> hash
7505586458437048816

$$$$
6_
XXILIB    08252103493D 0   0.00000     0.00000

 37 39  0     1  0            999 V2000
  -15.0478   -2.8830    6.8773 O   0  0  0  0  0  2           0  0  0
  -10.4981   -2.1397    7.9857 O   0  0  0  0  0  2           0  0  0
  -10.1176    0.1546    3.9004 O   0  0  0  0  0  2           0  0  0
   -7.0620    0.5323    3.2205 O   0  0  0  0  0  2           0  0  0
   -7.4751   -1.6629    7.0882 N   0  0  0  0  0  3           0  0  0
   -6.5138   -1.1972    6.2553 N   0  0  0  0  0  3           0  0  0
  -10.7606   -0.9721    5.9137 N   0  0  2  0  0  3           0  0  0
  -14.3859   -1.8481    6.2898 C   0  0  0  0  0  4           0  0  0
   -8.7107   -1.3929    6.6291 C   0  0  0  0  0  4           0  0  0
   -7.1904   -0.6159    5.2384 C   0  0  0  0  0  4           0  0  0
  -12.1774   -0.9058    5.8186 C   0  0  0  0  0  4           0  0  0
   -8.5704   -0.7286    5.4509 C   0  0  0  0  0  4           0  0  0
  -12.9870   -1.9075    6.3818 C   0  0  0  0  0  4           0  0  0
  -14.9872   -0.7764    5.6283 C   0  0  0  0  0  4           0  0  0
  -12.8029    0.1614    5.1581 C   0  0  0  0  0  4           0  0  0
  -14.1949    0.2232    5.0648 C   0  0  0  0  0  4           0  0  0
  -10.0758   -1.5820    6.9858 C   0  0  0  0  0  4           0  0  0
   -9.8834   -0.4332    4.9435 C   0  0  0  0  0  4           0  0  0
   -6.4594   -0.0000    4.1518 C   0  0  0  0  0  4           0  0  0
  -16.4713   -2.8856    6.8211 C   0  0  0  0  0  4           0  0  0
   -4.9437    0.0000    4.1750 C   0  0  0  0  0  4           0  0  0
   -4.3140   -0.0000    2.7832 C   0  0  0  0  0  4           0  0  0
   -2.7866    0.0000    2.7832 C   0  0  0  0  0  4           0  0  0
   -2.1570   -0.0000    1.3916 C   0  0  0  0  0  4           0  0  0
   -0.6296   -0.0000    1.3916 C   0  0  0  0  0  4           0  0  0
    0.0000   -0.0000    0.0000 C   0  0  0  0  0  4           0  0  0
    1.5277   -0.0000    0.0000 C   0  0  0  0  0  4           0  0  0
    2.1573    0.0000   -1.3916 C   0  0  0  0  0  4           0  0  0
    3.6847   -0.0000   -1.3916 C   0  0  0  0  0  4           0  0  0
    4.3143    0.0000   -2.7832 C   0  0  0  0  0  4           0  0  0
    5.8416   -0.0000   -2.7832 C   0  0  0  0  0  4           0  0  0
    6.4712    0.0000   -4.1748 C   0  0  0  0  0  4           0  0  0
    7.9986   -0.0000   -4.1748 C   0  0  0  0  0  4           0  0  0
    8.6282    0.0000   -5.5664 C   0  0  0  0  0  4           0  0  0
   10.1556   -0.0000   -5.5664 C   0  0  0  0  0  4           0  0  0
   10.7852    0.0000   -6.9579 C   0  0  0  0  0  4           0  0  0
   12.3038   -0.0000   -6.8799 C   0  0  0  0  0  4           0  0  0
  1  8  1  0     0  0
  1 20  1  0     0  0
  2 17  2  0     0  0
  3 18  2  0     0  0
  4 19  2  0     0  0
  5  6  1  0     0  0
  5  9  1  0     0  0
  6 10  2  0     0  0
  7 11  1  0     0  0
  7 17  1  0     0  0
  7 18  1  0     0  0
  8 13  2  0     0  0
  8 14  1  0     0  0
  9 12  2  0     0  0
  9 17  1  0     0  0
 10 12  1  0     0  0
 10 19  1  0     0  0
 11 13  1  0     0  0
 11 15  2  0     0  0
 12 18  1  0     0  0
 14 16  2  0     0  0
 15 16  1  0     0  0
 19 21  1  0     0  0
 21 22  1  0     0  0
 22 23  1  0     0  0
 23 24  1  0     0  0
 24 25  1  0     0  0
 25 26  1  0     0  0
 26 27  1  0     0  0
 27 28  1  0     0  0
 28 29  1  0     0  0
 29 30  1  0     0  0
 30 31  1  0     0  0
 31 32  1  0     0  0
 32 33  1  0     0  0
 33 34  1  0     0  0
 34 35  1  0     0  0
 35 36  1  0     0  0
 36 37  1  0     0  0
M  END
> <standard_type>
IC50

> <# Confs.>
25

> <canonical_smiles>
O=C1C2=C(C(C(CCCCCCCCCCCCCCCCC)=O)=NN2)C(N1C3=CC=CC(OC)=C3)=O

> <standard_relation>
=

> <predicted_activity_value>
6.619788758288394

> <actual_activity_value>
6.2839966563652006

> <Compound>
6

> <publication_ID>
nan

> <standard_units>
nM

> hash
7505586458437048816

$$$$
6_
XXILIB    08252103493D 0   0.00000     0.00000

 37 39  0     1  0            999 V2000
   -3.5227    8.3819   13.1576 O   0  0  0  0  0  2           0  0  0
   -4.0590    3.9911   11.4507 O   0  0  0  0  0  2           0  0  0
   -1.5617    5.3851    7.7199 O   0  0  0  0  0  2           0  0  0
   -1.9051    3.2665    5.4101 O   0  0  0  0  0  2           0  0  0
   -4.2782    1.9944    8.9735 N   0  0  0  0  0  3           0  0  0
   -3.9941    1.5845    7.7141 N   0  0  0  0  0  3           0  0  0
   -2.6737    5.0551    9.8153 N   0  0  2  0  0  3           0  0  0
   -2.6379    7.9216   12.2306 C   0  0  0  0  0  4           0  0  0
   -3.6633    3.1525    9.2751 C   0  0  0  0  0  4           0  0  0
   -3.1680    2.5350    7.2202 C   0  0  0  0  0  4           0  0  0
   -2.2434    6.2045   10.5325 C   0  0  0  0  0  4           0  0  0
   -2.9483    3.5298    8.1817 C   0  0  0  0  0  4           0  0  0
   -3.0567    6.7860   11.5206 C   0  0  0  0  0  4           0  0  0
   -1.3918    8.4858   11.9534 C   0  0  0  0  0  4           0  0  0
   -0.9957    6.7884   10.2700 C   0  0  0  0  0  4           0  0  0
   -0.5762    7.9186   10.9748 C   0  0  0  0  0  4           0  0  0
   -3.5344    4.0746   10.3520 C   0  0  0  0  0  4           0  0  0
   -2.2848    4.7693    8.4855 C   0  0  0  0  0  4           0  0  0
   -2.6572    2.4094    5.8720 C   0  0  0  0  0  4           0  0  0
   -3.1607    9.5329   13.9151 C   0  0  0  0  0  4           0  0  0
   -3.0419    1.2052    5.0355 C   0  0  0  0  0  4           0  0  0
   -2.4122    1.2052    3.6436 C   0  0  0  0  0  4           0  0  0
   -2.7866    0.0000    2.7832 C   0  0  0  0  0  4           0  0  0
   -2.1570    0.0000    1.3916 C   0  0  0  0  0  4           0  0  0
   -0.6296    0.0000    1.3916 C   0  0  0  0  0  4           0  0  0
    0.0000    0.0000    0.0000 C   0  0  0  0  0  4           0  0  0
    1.5277   -0.0000    0.0000 C   0  0  0  0  0  4           0  0  0
    2.1573    0.0000   -1.3916 C   0  0  0  0  0  4           0  0  0
    3.6847   -0.0000   -1.3916 C   0  0  0  0  0  4           0  0  0
    4.3143    0.0000   -2.7832 C   0  0  0  0  0  4           0  0  0
    5.8416   -0.0000   -2.7832 C   0  0  0  0  0  4           0  0  0
    6.4712    0.0000   -4.1748 C   0  0  0  0  0  4           0  0  0
    7.9986   -0.0000   -4.1748 C   0  0  0  0  0  4           0  0  0
    8.6282    0.0000   -5.5664 C   0  0  0  0  0  4           0  0  0
   10.1556   -0.0000   -5.5664 C   0  0  0  0  0  4           0  0  0
   10.7852    0.0000   -6.9579 C   0  0  0  0  0  4           0  0  0
   12.3038   -0.0000   -6.8799 C   0  0  0  0  0  4           0  0  0
  1  8  1  0     0  0
  1 20  1  0     0  0
  2 17  2  0     0  0
  3 18  2  0     0  0
  4 19  2  0     0  0
  5  6  1  0     0  0
  5  9  1  0     0  0
  6 10  2  0     0  0
  7 11  1  0     0  0
  7 17  1  0     0  0
  7 18  1  0     0  0
  8 13  2  0     0  0
  8 14  1  0     0  0
  9 12  2  0     0  0
  9 17  1  0     0  0
 10 12  1  0     0  0
 10 19  1  0     0  0
 11 13  1  0     0  0
 11 15  2  0     0  0
 12 18  1  0     0  0
 14 16  2  0     0  0
 15 16  1  0     0  0
 19 21  1  0     0  0
 21 22  1  0     0  0
 22 23  1  0     0  0
 23 24  1  0     0  0
 24 25  1  0     0  0
 25 26  1  0     0  0
 26 27  1  0     0  0
 27 28  1  0     0  0
 28 29  1  0     0  0
 29 30  1  0     0  0
 30 31  1  0     0  0
 31 32  1  0     0  0
 32 33  1  0     0  0
 33 34  1  0     0  0
 34 35  1  0     0  0
 35 36  1  0     0  0
 36 37  1  0     0  0
M  END
> <standard_type>
IC50

> <# Confs.>
25

> <canonical_smiles>
O=C1C2=C(C(C(CCCCCCCCCCCCCCCCC)=O)=NN2)C(N1C3=CC=CC(OC)=C3)=O

> <standard_relation>
=

> <predicted_activity_value>
6.619788758288394

> <actual_activity_value>
6.2839966563652006

> <Compound>
6

> <publication_ID>
nan

> <standard_units>
nM

> hash
7505586458437048816

$$$$
6_
XXILIB    08252103493D 0   0.00000     0.00000

 37 39  0     1  0            999 V2000
   -3.7721    6.1230   13.0544 O   0  0  0  0  0  2           0  0  0
   -3.8583    1.9031   10.8945 O   0  0  0  0  0  2           0  0  0
   -3.5729    4.2388    6.8250 O   0  0  0  0  0  2           0  0  0
   -4.3067    2.2783    4.4671 O   0  0  0  0  0  2           0  0  0
   -4.5834    0.1074    8.3606 N   0  0  0  0  0  3           0  0  0
   -4.7567   -0.1103    7.0349 N   0  0  0  0  0  3           0  0  0
   -3.5917    3.4455    9.0847 N   0  0  2  0  0  3           0  0  0
   -3.2692    6.0166   11.7934 C   0  0  0  0  0  4           0  0  0
   -4.2084    1.3740    8.6163 C   0  0  0  0  0  4           0  0  0
   -4.4763    1.0771    6.4508 C   0  0  0  0  0  4           0  0  0
   -3.2032    4.6196    9.7856 C   0  0  0  0  0  4           0  0  0
   -4.1318    2.0238    7.4242 C   0  0  0  0  0  4           0  0  0
   -3.6482    4.8587   11.0974 C   0  0  0  0  0  4           0  0  0
   -2.4351    6.9493   11.1752 C   0  0  0  0  0  4           0  0  0
   -2.3663    5.5705    9.1837 C   0  0  0  0  0  4           0  0  0
   -1.9876    6.7239    9.8739 C   0  0  0  0  0  4           0  0  0
   -3.8773    2.2162    9.7151 C   0  0  0  0  0  4           0  0  0
   -3.7336    3.3822    7.6786 C   0  0  0  0  0  4           0  0  0
   -4.5590    1.2043    5.0116 C   0  0  0  0  0  4           0  0  0
   -3.4269    7.2751   13.8179 C   0  0  0  0  0  4           0  0  0
   -4.9437    0.0000    4.1750 C   0  0  0  0  0  4           0  0  0
   -4.3140    0.0000    2.7832 C   0  0  0  0  0  4           0  0  0
   -2.7866    0.0000    2.7832 C   0  0  0  0  0  4           0  0  0
   -2.1570    0.0000    1.3916 C   0  0  0  0  0  4           0  0  0
   -0.6296   -0.0000    1.3916 C   0  0  0  0  0  4           0  0  0
    0.0000    0.0000    0.0000 C   0  0  0  0  0  4           0  0  0
    1.5277   -0.0000    0.0000 C   0  0  0  0  0  4           0  0  0
    2.1573    0.0000   -1.3916 C   0  0  0  0  0  4           0  0  0
    3.6847   -0.0000   -1.3916 C   0  0  0  0  0  4           0  0  0
    4.3143    0.0000   -2.7832 C   0  0  0  0  0  4           0  0  0
    5.8416   -0.0000   -2.7832 C   0  0  0  0  0  4           0  0  0
    6.4712    0.0000   -4.1748 C   0  0  0  0  0  4           0  0  0
    7.9986   -0.0000   -4.1748 C   0  0  0  0  0  4           0  0  0
    8.6282    0.0000   -5.5664 C   0  0  0  0  0  4           0  0  0
   10.1556   -0.0000   -5.5664 C   0  0  0  0  0  4           0  0  0
   10.7852    0.0000   -6.9579 C   0  0  0  0  0  4           0  0  0
   12.3038   -0.0000   -6.8799 C   0  0  0  0  0  4           0  0  0
  1  8  1  0     0  0
  1 20  1  0     0  0
  2 17  2  0     0  0
  3 18  2  0     0  0
  4 19  2  0     0  0
  5  6  1  0     0  0
  5  9  1  0     0  0
  6 10  2  0     0  0
  7 11  1  0     0  0
  7 17  1  0     0  0
  7 18  1  0     0  0
  8 13  2  0     0  0
  8 14  1  0     0  0
  9 12  2  0     0  0
  9 17  1  0     0  0
 10 12  1  0     0  0
 10 19  1  0     0  0
 11 13  1  0     0  0
 11 15  2  0     0  0
 12 18  1  0     0  0
 14 16  2  0     0  0
 15 16  1  0     0  0
 19 21  1  0     0  0
 21 22  1  0     0  0
 22 23  1  0     0  0
 23 24  1  0     0  0
 24 25  1  0     0  0
 25 26  1  0     0  0
 26 27  1  0     0  0
 27 28  1  0     0  0
 28 29  1  0     0  0
 29 30  1  0     0  0
 30 31  1  0     0  0
 31 32  1  0     0  0
 32 33  1  0     0  0
 33 34  1  0     0  0
 34 35  1  0     0  0
 35 36  1  0     0  0
 36 37  1  0     0  0
M  END
> <standard_type>
IC50

> <# Confs.>
25

> <canonical_smiles>
O=C1C2=C(C(C(CCCCCCCCCCCCCCCCC)=O)=NN2)C(N1C3=CC=CC(OC)=C3)=O

> <standard_relation>
=

> <predicted_activity_value>
6.619788758288394

> <actual_activity_value>
6.2839966563652006

> <Compound>
6

> <publication_ID>
nan

> <standard_units>
nM

> hash
7505586458437048816

$$$$
6_
XXILIB    08252103493D 0   0.00000     0.00000

 37 39  0     1  0            999 V2000
   -1.6209    9.5871   14.0180 O   0  0  0  0  0  2           0  0  0
   -2.1572    5.1963   12.3111 O   0  0  0  0  0  2           0  0  0
    0.3401    6.5902    8.5803 O   0  0  0  0  0  2           0  0  0
   -0.0033    4.4717    6.2705 O   0  0  0  0  0  2           0  0  0
   -2.3765    3.1996    9.8340 N   0  0  0  0  0  3           0  0  0
   -2.0923    2.7897    8.5746 N   0  0  0  0  0  3           0  0  0
   -0.7719    6.2602   10.6757 N   0  0  2  0  0  3           0  0  0
   -0.7361    9.1267   13.0910 C   0  0  0  0  0  4           0  0  0
   -1.7615    4.3577   10.1356 C   0  0  0  0  0  4           0  0  0
   -1.2662    3.7402    8.0806 C   0  0  0  0  0  4           0  0  0
   -0.3416    7.4097   11.3929 C   0  0  0  0  0  4           0  0  0
   -1.0465    4.7350    9.0421 C   0  0  0  0  0  4           0  0  0
   -1.1549    7.9912   12.3811 C   0  0  0  0  0  4           0  0  0
    0.5100    9.6909   12.8138 C   0  0  0  0  0  4           0  0  0
    0.9061    7.9935   11.1304 C   0  0  0  0  0  4           0  0  0
    1.3256    9.1238   11.8352 C   0  0  0  0  0  4           0  0  0
   -1.6326    5.2797   11.2124 C   0  0  0  0  0  4           0  0  0
   -0.3830    5.9744    9.3460 C   0  0  0  0  0  4           0  0  0
   -0.7555    3.6146    6.7324 C   0  0  0  0  0  4           0  0  0
   -1.2589   10.7380   14.7756 C   0  0  0  0  0  4           0  0  0
   -1.1401    2.4103    5.8959 C   0  0  0  0  0  4           0  0  0
   -0.5104    2.4103    4.5040 C   0  0  0  0  0  4           0  0  0
   -0.8848    1.2052    3.6436 C   0  0  0  0  0  4           0  0  0
   -0.2552    1.2052    2.2520 C   0  0  0  0  0  4           0  0  0
   -0.6296    0.0000    1.3916 C   0  0  0  0  0  4           0  0  0
    0.0000    0.0000    0.0000 C   0  0  0  0  0  4           0  0  0
    1.5277   -0.0000    0.0000 C   0  0  0  0  0  4           0  0  0
    2.1573    0.0000   -1.3916 C   0  0  0  0  0  4           0  0  0
    3.6847   -0.0000   -1.3916 C   0  0  0  0  0  4           0  0  0
    4.3143    0.0000   -2.7832 C   0  0  0  0  0  4           0  0  0
    5.8416   -0.0000   -2.7832 C   0  0  0  0  0  4           0  0  0
    6.4712    0.0000   -4.1748 C   0  0  0  0  0  4           0  0  0
    7.9986   -0.0000   -4.1748 C   0  0  0  0  0  4           0  0  0
    8.6282    0.0000   -5.5664 C   0  0  0  0  0  4           0  0  0
   10.1556   -0.0000   -5.5664 C   0  0  0  0  0  4           0  0  0
   10.7852    0.0000   -6.9579 C   0  0  0  0  0  4           0  0  0
   12.3038   -0.0000   -6.8799 C   0  0  0  0  0  4           0  0  0
  1  8  1  0     0  0
  1 20  1  0     0  0
  2 17  2  0     0  0
  3 18  2  0     0  0
  4 19  2  0     0  0
  5  6  1  0     0  0
  5  9  1  0     0  0
  6 10  2  0     0  0
  7 11  1  0     0  0
  7 17  1  0     0  0
  7 18  1  0     0  0
  8 13  2  0     0  0
  8 14  1  0     0  0
  9 12  2  0     0  0
  9 17  1  0     0  0
 10 12  1  0     0  0
 10 19  1  0     0  0
 11 13  1  0     0  0
 11 15  2  0     0  0
 12 18  1  0     0  0
 14 16  2  0     0  0
 15 16  1  0     0  0
 19 21  1  0     0  0
 21 22  1  0     0  0
 22 23  1  0     0  0
 23 24  1  0     0  0
 24 25  1  0     0  0
 25 26  1  0     0  0
 26 27  1  0     0  0
 27 28  1  0     0  0
 28 29  1  0     0  0
 29 30  1  0     0  0
 30 31  1  0     0  0
 31 32  1  0     0  0
 32 33  1  0     0  0
 33 34  1  0     0  0
 34 35  1  0     0  0
 35 36  1  0     0  0
 36 37  1  0     0  0
M  END
> <standard_type>
IC50

> <# Confs.>
25

> <canonical_smiles>
O=C1C2=C(C(C(CCCCCCCCCCCCCCCCC)=O)=NN2)C(N1C3=CC=CC(OC)=C3)=O

> <standard_relation>
=

> <predicted_activity_value>
6.619788758288394

> <actual_activity_value>
6.2839966563652006

> <Compound>
6

> <publication_ID>
nan

> <standard_units>
nM

> hash
7505586458437048816

$$$$
6_
XXILIB    08252103493D 0   0.00000     0.00000

 37 39  0     1  0            999 V2000
  -15.0640   -1.0683    7.9360 O   0  0  0  0  0  2           0  0  0
  -10.5065    0.0946    8.5336 O   0  0  0  0  0  2           0  0  0
  -10.1169    0.0363    3.8493 O   0  0  0  0  0  2           0  0  0
   -7.0599   -0.0000    3.0779 O   0  0  0  0  0  2           0  0  0
   -7.4818    0.0357    7.5241 N   0  0  0  0  0  3           0  0  0
   -6.5186    0.0153    6.5719 N   0  0  0  0  0  3           0  0  0
  -10.7643    0.0719    6.1548 N   0  0  2  0  0  3           0  0  0
  -14.3954   -0.4709    6.9111 C   0  0  0  0  0  4           0  0  0
   -8.7162    0.0495    6.9890 C   0  0  0  0  0  4           0  0  0
   -7.1928    0.0155    5.3993 C   0  0  0  0  0  4           0  0  0
  -12.1808    0.0927    6.0365 C   0  0  0  0  0  4           0  0  0
   -8.5733    0.0346    5.6368 C   0  0  0  0  0  4           0  0  0
  -12.9969   -0.4871    7.0234 C   0  0  0  0  0  4           0  0  0
  -14.9899    0.1312    5.8012 C   0  0  0  0  0  4           0  0  0
  -12.7994    0.6915    4.9296 C   0  0  0  0  0  4           0  0  0
  -14.1911    0.7090    4.8150 C   0  0  0  0  0  4           0  0  0
  -10.0820    0.0745    7.3896 C   0  0  0  0  0  4           0  0  0
   -9.8850    0.0469    5.0470 C   0  0  0  0  0  4           0  0  0
   -6.4594   -0.0000    4.1518 C   0  0  0  0  0  4           0  0  0
  -16.4876   -1.0877    7.8856 C   0  0  0  0  0  4           0  0  0
   -4.9437    0.0000    4.1750 C   0  0  0  0  0  4           0  0  0
   -4.3140   -0.0000    2.7832 C   0  0  0  0  0  4           0  0  0
   -2.7866    0.0000    2.7832 C   0  0  0  0  0  4           0  0  0
   -2.1570   -0.0000    1.3916 C   0  0  0  0  0  4           0  0  0
   -0.6296   -0.0000    1.3916 C   0  0  0  0  0  4           0  0  0
    0.0000   -0.0000    0.0000 C   0  0  0  0  0  4           0  0  0
    1.5277    0.0000   -0.0000 C   0  0  0  0  0  4           0  0  0
    2.1573   -1.2052    0.6958 C   0  0  0  0  0  4           0  0  0
    3.6847   -1.2052    0.6958 C   0  0  0  0  0  4           0  0  0
    4.3143   -2.4103    1.3916 C   0  0  0  0  0  4           0  0  0
    5.8416   -2.4103    1.3916 C   0  0  0  0  0  4           0  0  0
    6.4712   -3.6155    2.0874 C   0  0  0  0  0  4           0  0  0
    7.9986   -3.6155    2.0874 C   0  0  0  0  0  4           0  0  0
    8.6282   -4.8206    2.7832 C   0  0  0  0  0  4           0  0  0
   10.1556   -4.8206    2.7832 C   0  0  0  0  0  4           0  0  0
   10.7852   -6.0258    3.4790 C   0  0  0  0  0  4           0  0  0
   12.3038   -5.9582    3.4400 C   0  0  0  0  0  4           0  0  0
  1  8  1  0     0  0
  1 20  1  0     0  0
  2 17  2  0     0  0
  3 18  2  0     0  0
  4 19  2  0     0  0
  5  6  1  0     0  0
  5  9  1  0     0  0
  6 10  2  0     0  0
  7 11  1  0     0  0
  7 17  1  0     0  0
  7 18  1  0     0  0
  8 13  2  0     0  0
  8 14  1  0     0  0
  9 12  2  0     0  0
  9 17  1  0     0  0
 10 12  1  0     0  0
 10 19  1  0     0  0
 11 13  1  0     0  0
 11 15  2  0     0  0
 12 18  1  0     0  0
 14 16  2  0     0  0
 15 16  1  0     0  0
 19 21  1  0     0  0
 21 22  1  0     0  0
 22 23  1  0     0  0
 23 24  1  0     0  0
 24 25  1  0     0  0
 25 26  1  0     0  0
 26 27  1  0     0  0
 27 28  1  0     0  0
 28 29  1  0     0  0
 29 30  1  0     0  0
 30 31  1  0     0  0
 31 32  1  0     0  0
 32 33  1  0     0  0
 33 34  1  0     0  0
 34 35  1  0     0  0
 35 36  1  0     0  0
 36 37  1  0     0  0
M  END
> <standard_type>
IC50

> <# Confs.>
25

> <canonical_smiles>
O=C1C2=C(C(C(CCCCCCCCCCCCCCCCC)=O)=NN2)C(N1C3=CC=CC(OC)=C3)=O

> <standard_relation>
=

> <predicted_activity_value>
6.619788758288394

> <actual_activity_value>
6.2839966563652006

> <Compound>
6

> <publication_ID>
nan

> <standard_units>
nM

> hash
7505586458437048816

$$$$
6_
XXILIB    08252103493D 0   0.00000     0.00000

 37 39  0     1  0            999 V2000
  -15.0640   -1.0683    7.9360 O   0  0  0  0  0  2           0  0  0
  -10.5065    0.0946    8.5336 O   0  0  0  0  0  2           0  0  0
  -10.1169    0.0363    3.8493 O   0  0  0  0  0  2           0  0  0
   -7.0599   -0.0000    3.0779 O   0  0  0  0  0  2           0  0  0
   -7.4818    0.0357    7.5241 N   0  0  0  0  0  3           0  0  0
   -6.5186    0.0153    6.5719 N   0  0  0  0  0  3           0  0  0
  -10.7643    0.0719    6.1548 N   0  0  2  0  0  3           0  0  0
  -14.3954   -0.4709    6.9111 C   0  0  0  0  0  4           0  0  0
   -8.7162    0.0495    6.9890 C   0  0  0  0  0  4           0  0  0
   -7.1928    0.0155    5.3993 C   0  0  0  0  0  4           0  0  0
  -12.1808    0.0927    6.0365 C   0  0  0  0  0  4           0  0  0
   -8.5733    0.0346    5.6368 C   0  0  0  0  0  4           0  0  0
  -12.9969   -0.4871    7.0234 C   0  0  0  0  0  4           0  0  0
  -14.9899    0.1312    5.8012 C   0  0  0  0  0  4           0  0  0
  -12.7994    0.6915    4.9296 C   0  0  0  0  0  4           0  0  0
  -14.1911    0.7090    4.8150 C   0  0  0  0  0  4           0  0  0
  -10.0820    0.0745    7.3896 C   0  0  0  0  0  4           0  0  0
   -9.8850    0.0469    5.0470 C   0  0  0  0  0  4           0  0  0
   -6.4594   -0.0000    4.1518 C   0  0  0  0  0  4           0  0  0
  -16.4876   -1.0877    7.8856 C   0  0  0  0  0  4           0  0  0
   -4.9437    0.0000    4.1750 C   0  0  0  0  0  4           0  0  0
   -4.3140   -0.0000    2.7832 C   0  0  0  0  0  4           0  0  0
   -2.7866    0.0000    2.7832 C   0  0  0  0  0  4           0  0  0
   -2.1570   -0.0000    1.3916 C   0  0  0  0  0  4           0  0  0
   -0.6296   -0.0000    1.3916 C   0  0  0  0  0  4           0  0  0
    0.0000   -0.0000    0.0000 C   0  0  0  0  0  4           0  0  0
    1.5277    0.0000   -0.0000 C   0  0  0  0  0  4           0  0  0
    2.1573    0.0000   -1.3916 C   0  0  0  0  0  4           0  0  0
    1.7829    1.2052   -2.2520 C   0  0  0  0  0  4           0  0  0
    2.4125    1.2052   -3.6436 C   0  0  0  0  0  4           0  0  0
    2.0380    2.4103   -4.5040 C   0  0  0  0  0  4           0  0  0
    2.6676    2.4103   -5.8956 C   0  0  0  0  0  4           0  0  0
    2.2932    3.6155   -6.7561 C   0  0  0  0  0  4           0  0  0
    2.9228    3.6155   -8.1477 C   0  0  0  0  0  4           0  0  0
    2.5484    4.8206   -9.0081 C   0  0  0  0  0  4           0  0  0
    3.1780    4.8206  -10.3997 C   0  0  0  0  0  4           0  0  0
    2.7618    6.0467  -11.1970 C   0  0  0  0  0  4           0  0  0
  1  8  1  0     0  0
  1 20  1  0     0  0
  2 17  2  0     0  0
  3 18  2  0     0  0
  4 19  2  0     0  0
  5  6  1  0     0  0
  5  9  1  0     0  0
  6 10  2  0     0  0
  7 11  1  0     0  0
  7 17  1  0     0  0
  7 18  1  0     0  0
  8 13  2  0     0  0
  8 14  1  0     0  0
  9 12  2  0     0  0
  9 17  1  0     0  0
 10 12  1  0     0  0
 10 19  1  0     0  0
 11 13  1  0     0  0
 11 15  2  0     0  0
 12 18  1  0     0  0
 14 16  2  0     0  0
 15 16  1  0     0  0
 19 21  1  0     0  0
 21 22  1  0     0  0
 22 23  1  0     0  0
 23 24  1  0     0  0
 24 25  1  0     0  0
 25 26  1  0     0  0
 26 27  1  0     0  0
 27 28  1  0     0  0
 28 29  1  0     0  0
 29 30  1  0     0  0
 30 31  1  0     0  0
 31 32  1  0     0  0
 32 33  1  0     0  0
 33 34  1  0     0  0
 34 35  1  0     0  0
 35 36  1  0     0  0
 36 37  1  0     0  0
M  END
> <standard_type>
IC50

> <# Confs.>
25

> <canonical_smiles>
O=C1C2=C(C(C(CCCCCCCCCCCCCCCCC)=O)=NN2)C(N1C3=CC=CC(OC)=C3)=O

> <standard_relation>
=

> <predicted_activity_value>
6.619788758288394

> <actual_activity_value>
6.2839966563652006

> <Compound>
6

> <publication_ID>
nan

> <standard_units>
nM

> hash
7505586458437048816

$$$$
6_
XXILIB    08252103493D 0   0.00000     0.00000

 37 39  0     1  0            999 V2000
  -15.0640   -1.0683    7.9360 O   0  0  0  0  0  2           0  0  0
  -10.5065    0.0946    8.5336 O   0  0  0  0  0  2           0  0  0
  -10.1169    0.0363    3.8493 O   0  0  0  0  0  2           0  0  0
   -7.0599   -0.0000    3.0779 O   0  0  0  0  0  2           0  0  0
   -7.4818    0.0357    7.5241 N   0  0  0  0  0  3           0  0  0
   -6.5186    0.0153    6.5719 N   0  0  0  0  0  3           0  0  0
  -10.7643    0.0719    6.1548 N   0  0  2  0  0  3           0  0  0
  -14.3954   -0.4709    6.9111 C   0  0  0  0  0  4           0  0  0
   -8.7162    0.0495    6.9890 C   0  0  0  0  0  4           0  0  0
   -7.1928    0.0155    5.3993 C   0  0  0  0  0  4           0  0  0
  -12.1808    0.0927    6.0365 C   0  0  0  0  0  4           0  0  0
   -8.5733    0.0346    5.6368 C   0  0  0  0  0  4           0  0  0
  -12.9969   -0.4871    7.0234 C   0  0  0  0  0  4           0  0  0
  -14.9899    0.1312    5.8012 C   0  0  0  0  0  4           0  0  0
  -12.7994    0.6915    4.9296 C   0  0  0  0  0  4           0  0  0
  -14.1911    0.7090    4.8150 C   0  0  0  0  0  4           0  0  0
  -10.0820    0.0745    7.3896 C   0  0  0  0  0  4           0  0  0
   -9.8850    0.0469    5.0470 C   0  0  0  0  0  4           0  0  0
   -6.4594   -0.0000    4.1518 C   0  0  0  0  0  4           0  0  0
  -16.4876   -1.0877    7.8856 C   0  0  0  0  0  4           0  0  0
   -4.9437    0.0000    4.1750 C   0  0  0  0  0  4           0  0  0
   -4.3140   -0.0000    2.7832 C   0  0  0  0  0  4           0  0  0
   -2.7866    0.0000    2.7832 C   0  0  0  0  0  4           0  0  0
   -2.1570   -0.0000    1.3916 C   0  0  0  0  0  4           0  0  0
   -0.6296   -0.0000    1.3916 C   0  0  0  0  0  4           0  0  0
    0.0000   -0.0000    0.0000 C   0  0  0  0  0  4           0  0  0
    1.5277   -0.0000    0.0000 C   0  0  0  0  0  4           0  0  0
    2.1573    0.0000   -1.3916 C   0  0  0  0  0  4           0  0  0
    3.6847   -0.0000   -1.3916 C   0  0  0  0  0  4           0  0  0
    4.3143   -0.0000   -2.7832 C   0  0  0  0  0  4           0  0  0
    3.9398    1.2052   -3.6436 C   0  0  0  0  0  4           0  0  0
    4.5694    1.2052   -5.0352 C   0  0  0  0  0  4           0  0  0
    4.1950    2.4103   -5.8956 C   0  0  0  0  0  4           0  0  0
    4.8246    2.4103   -7.2872 C   0  0  0  0  0  4           0  0  0
    4.4502    3.6155   -8.1477 C   0  0  0  0  0  4           0  0  0
    5.0798    3.6155   -9.5392 C   0  0  0  0  0  4           0  0  0
    4.6636    4.8415  -10.3366 C   0  0  0  0  0  4           0  0  0
  1  8  1  0     0  0
  1 20  1  0     0  0
  2 17  2  0     0  0
  3 18  2  0     0  0
  4 19  2  0     0  0
  5  6  1  0     0  0
  5  9  1  0     0  0
  6 10  2  0     0  0
  7 11  1  0     0  0
  7 17  1  0     0  0
  7 18  1  0     0  0
  8 13  2  0     0  0
  8 14  1  0     0  0
  9 12  2  0     0  0
  9 17  1  0     0  0
 10 12  1  0     0  0
 10 19  1  0     0  0
 11 13  1  0     0  0
 11 15  2  0     0  0
 12 18  1  0     0  0
 14 16  2  0     0  0
 15 16  1  0     0  0
 19 21  1  0     0  0
 21 22  1  0     0  0
 22 23  1  0     0  0
 23 24  1  0     0  0
 24 25  1  0     0  0
 25 26  1  0     0  0
 26 27  1  0     0  0
 27 28  1  0     0  0
 28 29  1  0     0  0
 29 30  1  0     0  0
 30 31  1  0     0  0
 31 32  1  0     0  0
 32 33  1  0     0  0
 33 34  1  0     0  0
 34 35  1  0     0  0
 35 36  1  0     0  0
 36 37  1  0     0  0
M  END
> <standard_type>
IC50

> <# Confs.>
25

> <canonical_smiles>
O=C1C2=C(C(C(CCCCCCCCCCCCCCCCC)=O)=NN2)C(N1C3=CC=CC(OC)=C3)=O

> <standard_relation>
=

> <predicted_activity_value>
6.619788758288394

> <actual_activity_value>
6.2839966563652006

> <Compound>
6

> <publication_ID>
nan

> <standard_units>
nM

> hash
7505586458437048816

$$$$
6_
XXILIB    08252103493D 0   0.00000     0.00000

 37 39  0     1  0            999 V2000
  -15.0640   -1.0683    7.9360 O   0  0  0  0  0  2           0  0  0
  -10.5065    0.0946    8.5336 O   0  0  0  0  0  2           0  0  0
  -10.1169    0.0363    3.8493 O   0  0  0  0  0  2           0  0  0
   -7.0599   -0.0000    3.0779 O   0  0  0  0  0  2           0  0  0
   -7.4818    0.0357    7.5241 N   0  0  0  0  0  3           0  0  0
   -6.5186    0.0153    6.5719 N   0  0  0  0  0  3           0  0  0
  -10.7643    0.0719    6.1548 N   0  0  2  0  0  3           0  0  0
  -14.3954   -0.4709    6.9111 C   0  0  0  0  0  4           0  0  0
   -8.7162    0.0495    6.9890 C   0  0  0  0  0  4           0  0  0
   -7.1928    0.0155    5.3993 C   0  0  0  0  0  4           0  0  0
  -12.1808    0.0927    6.0365 C   0  0  0  0  0  4           0  0  0
   -8.5733    0.0346    5.6368 C   0  0  0  0  0  4           0  0  0
  -12.9969   -0.4871    7.0234 C   0  0  0  0  0  4           0  0  0
  -14.9899    0.1312    5.8012 C   0  0  0  0  0  4           0  0  0
  -12.7994    0.6915    4.9296 C   0  0  0  0  0  4           0  0  0
  -14.1911    0.7090    4.8150 C   0  0  0  0  0  4           0  0  0
  -10.0820    0.0745    7.3896 C   0  0  0  0  0  4           0  0  0
   -9.8850    0.0469    5.0470 C   0  0  0  0  0  4           0  0  0
   -6.4594   -0.0000    4.1518 C   0  0  0  0  0  4           0  0  0
  -16.4876   -1.0877    7.8856 C   0  0  0  0  0  4           0  0  0
   -4.9437    0.0000    4.1750 C   0  0  0  0  0  4           0  0  0
   -4.3140   -0.0000    2.7832 C   0  0  0  0  0  4           0  0  0
   -2.7866    0.0000    2.7832 C   0  0  0  0  0  4           0  0  0
   -2.1570   -0.0000    1.3916 C   0  0  0  0  0  4           0  0  0
   -0.6296   -0.0000    1.3916 C   0  0  0  0  0  4           0  0  0
    0.0000   -0.0000    0.0000 C   0  0  0  0  0  4           0  0  0
    1.5277   -0.0000   -0.0000 C   0  0  0  0  0  4           0  0  0
    2.1573    0.0000   -1.3916 C   0  0  0  0  0  4           0  0  0
    3.6847   -0.0000   -1.3916 C   0  0  0  0  0  4           0  0  0
    4.3143   -1.2052   -0.6958 C   0  0  0  0  0  4           0  0  0
    5.8416   -1.2052   -0.6958 C   0  0  0  0  0  4           0  0  0
    6.4712   -2.4103    0.0000 C   0  0  0  0  0  4           0  0  0
    7.9986   -2.4103    0.0000 C   0  0  0  0  0  4           0  0  0
    8.6282   -3.6155    0.6958 C   0  0  0  0  0  4           0  0  0
   10.1556   -3.6155    0.6958 C   0  0  0  0  0  4           0  0  0
   10.7852   -4.8206    1.3916 C   0  0  0  0  0  4           0  0  0
   12.3038   -4.7530    1.3526 C   0  0  0  0  0  4           0  0  0
  1  8  1  0     0  0
  1 20  1  0     0  0
  2 17  2  0     0  0
  3 18  2  0     0  0
  4 19  2  0     0  0
  5  6  1  0     0  0
  5  9  1  0     0  0
  6 10  2  0     0  0
  7 11  1  0     0  0
  7 17  1  0     0  0
  7 18  1  0     0  0
  8 13  2  0     0  0
  8 14  1  0     0  0
  9 12  2  0     0  0
  9 17  1  0     0  0
 10 12  1  0     0  0
 10 19  1  0     0  0
 11 13  1  0     0  0
 11 15  2  0     0  0
 12 18  1  0     0  0
 14 16  2  0     0  0
 15 16  1  0     0  0
 19 21  1  0     0  0
 21 22  1  0     0  0
 22 23  1  0     0  0
 23 24  1  0     0  0
 24 25  1  0     0  0
 25 26  1  0     0  0
 26 27  1  0     0  0
 27 28  1  0     0  0
 28 29  1  0     0  0
 29 30  1  0     0  0
 30 31  1  0     0  0
 31 32  1  0     0  0
 32 33  1  0     0  0
 33 34  1  0     0  0
 34 35  1  0     0  0
 35 36  1  0     0  0
 36 37  1  0     0  0
M  END
> <standard_type>
IC50

> <# Confs.>
25

> <canonical_smiles>
O=C1C2=C(C(C(CCCCCCCCCCCCCCCCC)=O)=NN2)C(N1C3=CC=CC(OC)=C3)=O

> <standard_relation>
=

> <predicted_activity_value>
6.619788758288394

> <actual_activity_value>
6.2839966563652006

> <Compound>
6

> <publication_ID>
nan

> <standard_units>
nM

> hash
7505586458437048816

$$$$
6_
XXILIB    08252103493D 0   0.00000     0.00000

 37 39  0     1  0            999 V2000
  -15.0640   -1.0683    7.9360 O   0  0  0  0  0  2           0  0  0
  -10.5065    0.0946    8.5336 O   0  0  0  0  0  2           0  0  0
  -10.1169    0.0363    3.8493 O   0  0  0  0  0  2           0  0  0
   -7.0599   -0.0000    3.0779 O   0  0  0  0  0  2           0  0  0
   -7.4818    0.0357    7.5241 N   0  0  0  0  0  3           0  0  0
   -6.5186    0.0153    6.5719 N   0  0  0  0  0  3           0  0  0
  -10.7643    0.0719    6.1548 N   0  0  2  0  0  3           0  0  0
  -14.3954   -0.4709    6.9111 C   0  0  0  0  0  4           0  0  0
   -8.7162    0.0495    6.9890 C   0  0  0  0  0  4           0  0  0
   -7.1928    0.0155    5.3993 C   0  0  0  0  0  4           0  0  0
  -12.1808    0.0927    6.0365 C   0  0  0  0  0  4           0  0  0
   -8.5733    0.0346    5.6368 C   0  0  0  0  0  4           0  0  0
  -12.9969   -0.4871    7.0234 C   0  0  0  0  0  4           0  0  0
  -14.9899    0.1312    5.8012 C   0  0  0  0  0  4           0  0  0
  -12.7994    0.6915    4.9296 C   0  0  0  0  0  4           0  0  0
  -14.1911    0.7090    4.8150 C   0  0  0  0  0  4           0  0  0
  -10.0820    0.0745    7.3896 C   0  0  0  0  0  4           0  0  0
   -9.8850    0.0469    5.0470 C   0  0  0  0  0  4           0  0  0
   -6.4594   -0.0000    4.1518 C   0  0  0  0  0  4           0  0  0
  -16.4876   -1.0877    7.8856 C   0  0  0  0  0  4           0  0  0
   -4.9437    0.0000    4.1750 C   0  0  0  0  0  4           0  0  0
   -4.3140   -0.0000    2.7832 C   0  0  0  0  0  4           0  0  0
   -2.7866    0.0000    2.7832 C   0  0  0  0  0  4           0  0  0
   -2.1570   -0.0000    1.3916 C   0  0  0  0  0  4           0  0  0
   -0.6296   -0.0000    1.3916 C   0  0  0  0  0  4           0  0  0
    0.0000   -0.0000    0.0000 C   0  0  0  0  0  4           0  0  0
    1.5277    0.0000   -0.0000 C   0  0  0  0  0  4           0  0  0
    2.1573    0.0000   -1.3916 C   0  0  0  0  0  4           0  0  0
    3.6847   -0.0000   -1.3916 C   0  0  0  0  0  4           0  0  0
    4.3143    0.0000   -2.7832 C   0  0  0  0  0  4           0  0  0
    5.8416   -0.0000   -2.7832 C   0  0  0  0  0  4           0  0  0
    6.4712   -1.2052   -2.0874 C   0  0  0  0  0  4           0  0  0
    7.9986   -1.2052   -2.0874 C   0  0  0  0  0  4           0  0  0
    8.6282   -2.4103   -1.3916 C   0  0  0  0  0  4           0  0  0
   10.1556   -2.4103   -1.3916 C   0  0  0  0  0  4           0  0  0
   10.7852   -3.6155   -0.6958 C   0  0  0  0  0  4           0  0  0
   12.3038   -3.5479   -0.7348 C   0  0  0  0  0  4           0  0  0
  1  8  1  0     0  0
  1 20  1  0     0  0
  2 17  2  0     0  0
  3 18  2  0     0  0
  4 19  2  0     0  0
  5  6  1  0     0  0
  5  9  1  0     0  0
  6 10  2  0     0  0
  7 11  1  0     0  0
  7 17  1  0     0  0
  7 18  1  0     0  0
  8 13  2  0     0  0
  8 14  1  0     0  0
  9 12  2  0     0  0
  9 17  1  0     0  0
 10 12  1  0     0  0
 10 19  1  0     0  0
 11 13  1  0     0  0
 11 15  2  0     0  0
 12 18  1  0     0  0
 14 16  2  0     0  0
 15 16  1  0     0  0
 19 21  1  0     0  0
 21 22  1  0     0  0
 22 23  1  0     0  0
 23 24  1  0     0  0
 24 25  1  0     0  0
 25 26  1  0     0  0
 26 27  1  0     0  0
 27 28  1  0     0  0
 28 29  1  0     0  0
 29 30  1  0     0  0
 30 31  1  0     0  0
 31 32  1  0     0  0
 32 33  1  0     0  0
 33 34  1  0     0  0
 34 35  1  0     0  0
 35 36  1  0     0  0
 36 37  1  0     0  0
M  END
> <standard_type>
IC50

> <# Confs.>
25

> <canonical_smiles>
O=C1C2=C(C(C(CCCCCCCCCCCCCCCCC)=O)=NN2)C(N1C3=CC=CC(OC)=C3)=O

> <standard_relation>
=

> <predicted_activity_value>
6.619788758288394

> <actual_activity_value>
6.2839966563652006

> <Compound>
6

> <publication_ID>
nan

> <standard_units>
nM

> hash
7505586458437048816

$$$$
6_
XXILIB    08252103493D 0   0.00000     0.00000

 37 39  0     1  0            999 V2000
  -15.0640   -1.0683    7.9360 O   0  0  0  0  0  2           0  0  0
  -10.5065    0.0946    8.5336 O   0  0  0  0  0  2           0  0  0
  -10.1169    0.0363    3.8493 O   0  0  0  0  0  2           0  0  0
   -7.0599   -0.0000    3.0779 O   0  0  0  0  0  2           0  0  0
   -7.4818    0.0357    7.5241 N   0  0  0  0  0  3           0  0  0
   -6.5186    0.0153    6.5719 N   0  0  0  0  0  3           0  0  0
  -10.7643    0.0719    6.1548 N   0  0  2  0  0  3           0  0  0
  -14.3954   -0.4709    6.9111 C   0  0  0  0  0  4           0  0  0
   -8.7162    0.0495    6.9890 C   0  0  0  0  0  4           0  0  0
   -7.1928    0.0155    5.3993 C   0  0  0  0  0  4           0  0  0
  -12.1808    0.0927    6.0365 C   0  0  0  0  0  4           0  0  0
   -8.5733    0.0346    5.6368 C   0  0  0  0  0  4           0  0  0
  -12.9969   -0.4871    7.0234 C   0  0  0  0  0  4           0  0  0
  -14.9899    0.1312    5.8012 C   0  0  0  0  0  4           0  0  0
  -12.7994    0.6915    4.9296 C   0  0  0  0  0  4           0  0  0
  -14.1911    0.7090    4.8150 C   0  0  0  0  0  4           0  0  0
  -10.0820    0.0745    7.3896 C   0  0  0  0  0  4           0  0  0
   -9.8850    0.0469    5.0470 C   0  0  0  0  0  4           0  0  0
   -6.4594   -0.0000    4.1518 C   0  0  0  0  0  4           0  0  0
  -16.4876   -1.0877    7.8856 C   0  0  0  0  0  4           0  0  0
   -4.9437    0.0000    4.1750 C   0  0  0  0  0  4           0  0  0
   -4.3140   -0.0000    2.7832 C   0  0  0  0  0  4           0  0  0
   -2.7866    0.0000    2.7832 C   0  0  0  0  0  4           0  0  0
   -2.1570   -0.0000    1.3916 C   0  0  0  0  0  4           0  0  0
   -0.6296   -0.0000    1.3916 C   0  0  0  0  0  4           0  0  0
    0.0000   -0.0000    0.0000 C   0  0  0  0  0  4           0  0  0
    1.5277    0.0000   -0.0000 C   0  0  0  0  0  4           0  0  0
    2.1573    0.0000   -1.3916 C   0  0  0  0  0  4           0  0  0
    3.6847   -0.0000   -1.3916 C   0  0  0  0  0  4           0  0  0
    4.3143    0.0000   -2.7832 C   0  0  0  0  0  4           0  0  0
    5.8416   -0.0000   -2.7832 C   0  0  0  0  0  4           0  0  0
    6.4712   -0.0000   -4.1748 C   0  0  0  0  0  4           0  0  0
    6.0968    1.2052   -5.0352 C   0  0  0  0  0  4           0  0  0
    6.7264    1.2052   -6.4268 C   0  0  0  0  0  4           0  0  0
    6.3520    2.4103   -7.2872 C   0  0  0  0  0  4           0  0  0
    6.9816    2.4103   -8.6788 C   0  0  0  0  0  4           0  0  0
    6.5654    3.6364   -9.4761 C   0  0  0  0  0  4           0  0  0
  1  8  1  0     0  0
  1 20  1  0     0  0
  2 17  2  0     0  0
  3 18  2  0     0  0
  4 19  2  0     0  0
  5  6  1  0     0  0
  5  9  1  0     0  0
  6 10  2  0     0  0
  7 11  1  0     0  0
  7 17  1  0     0  0
  7 18  1  0     0  0
  8 13  2  0     0  0
  8 14  1  0     0  0
  9 12  2  0     0  0
  9 17  1  0     0  0
 10 12  1  0     0  0
 10 19  1  0     0  0
 11 13  1  0     0  0
 11 15  2  0     0  0
 12 18  1  0     0  0
 14 16  2  0     0  0
 15 16  1  0     0  0
 19 21  1  0     0  0
 21 22  1  0     0  0
 22 23  1  0     0  0
 23 24  1  0     0  0
 24 25  1  0     0  0
 25 26  1  0     0  0
 26 27  1  0     0  0
 27 28  1  0     0  0
 28 29  1  0     0  0
 29 30  1  0     0  0
 30 31  1  0     0  0
 31 32  1  0     0  0
 32 33  1  0     0  0
 33 34  1  0     0  0
 34 35  1  0     0  0
 35 36  1  0     0  0
 36 37  1  0     0  0
M  END
> <standard_type>
IC50

> <# Confs.>
25

> <canonical_smiles>
O=C1C2=C(C(C(CCCCCCCCCCCCCCCCC)=O)=NN2)C(N1C3=CC=CC(OC)=C3)=O

> <standard_relation>
=

> <predicted_activity_value>
6.619788758288394

> <actual_activity_value>
6.2839966563652006

> <Compound>
6

> <publication_ID>
nan

> <standard_units>
nM

> hash
7505586458437048816

$$$$
6_
XXILIB    08252103493D 0   0.00000     0.00000

 37 39  0     1  0            999 V2000
  -15.0640   -1.0683    7.9360 O   0  0  0  0  0  2           0  0  0
  -10.5065    0.0946    8.5336 O   0  0  0  0  0  2           0  0  0
  -10.1169    0.0363    3.8493 O   0  0  0  0  0  2           0  0  0
   -7.0599   -0.0000    3.0779 O   0  0  0  0  0  2           0  0  0
   -7.4818    0.0357    7.5241 N   0  0  0  0  0  3           0  0  0
   -6.5186    0.0153    6.5719 N   0  0  0  0  0  3           0  0  0
  -10.7643    0.0719    6.1548 N   0  0  2  0  0  3           0  0  0
  -14.3954   -0.4709    6.9111 C   0  0  0  0  0  4           0  0  0
   -8.7162    0.0495    6.9890 C   0  0  0  0  0  4           0  0  0
   -7.1928    0.0155    5.3993 C   0  0  0  0  0  4           0  0  0
  -12.1808    0.0927    6.0365 C   0  0  0  0  0  4           0  0  0
   -8.5733    0.0346    5.6368 C   0  0  0  0  0  4           0  0  0
  -12.9969   -0.4871    7.0234 C   0  0  0  0  0  4           0  0  0
  -14.9899    0.1312    5.8012 C   0  0  0  0  0  4           0  0  0
  -12.7994    0.6915    4.9296 C   0  0  0  0  0  4           0  0  0
  -14.1911    0.7090    4.8150 C   0  0  0  0  0  4           0  0  0
  -10.0820    0.0745    7.3896 C   0  0  0  0  0  4           0  0  0
   -9.8850    0.0469    5.0470 C   0  0  0  0  0  4           0  0  0
   -6.4594   -0.0000    4.1518 C   0  0  0  0  0  4           0  0  0
  -16.4876   -1.0877    7.8856 C   0  0  0  0  0  4           0  0  0
   -4.9437    0.0000    4.1750 C   0  0  0  0  0  4           0  0  0
   -4.3140   -0.0000    2.7832 C   0  0  0  0  0  4           0  0  0
   -2.7866    0.0000    2.7832 C   0  0  0  0  0  4           0  0  0
   -2.1570   -0.0000    1.3916 C   0  0  0  0  0  4           0  0  0
   -0.6296   -0.0000    1.3916 C   0  0  0  0  0  4           0  0  0
    0.0000   -0.0000    0.0000 C   0  0  0  0  0  4           0  0  0
    1.5277   -0.0000    0.0000 C   0  0  0  0  0  4           0  0  0
    2.1573    0.0000   -1.3916 C   0  0  0  0  0  4           0  0  0
    3.6847   -0.0000   -1.3916 C   0  0  0  0  0  4           0  0  0
    4.3143    0.0000   -2.7832 C   0  0  0  0  0  4           0  0  0
    5.8416   -0.0000   -2.7832 C   0  0  0  0  0  4           0  0  0
    6.4712    0.0000   -4.1748 C   0  0  0  0  0  4           0  0  0
    7.9986   -0.0000   -4.1748 C   0  0  0  0  0  4           0  0  0
    8.6282   -1.2052   -3.4790 C   0  0  0  0  0  4           0  0  0
   10.1556   -1.2052   -3.4790 C   0  0  0  0  0  4           0  0  0
   10.7852   -2.4103   -2.7832 C   0  0  0  0  0  4           0  0  0
   12.3038   -2.3427   -2.8222 C   0  0  0  0  0  4           0  0  0
  1  8  1  0     0  0
  1 20  1  0     0  0
  2 17  2  0     0  0
  3 18  2  0     0  0
  4 19  2  0     0  0
  5  6  1  0     0  0
  5  9  1  0     0  0
  6 10  2  0     0  0
  7 11  1  0     0  0
  7 17  1  0     0  0
  7 18  1  0     0  0
  8 13  2  0     0  0
  8 14  1  0     0  0
  9 12  2  0     0  0
  9 17  1  0     0  0
 10 12  1  0     0  0
 10 19  1  0     0  0
 11 13  1  0     0  0
 11 15  2  0     0  0
 12 18  1  0     0  0
 14 16  2  0     0  0
 15 16  1  0     0  0
 19 21  1  0     0  0
 21 22  1  0     0  0
 22 23  1  0     0  0
 23 24  1  0     0  0
 24 25  1  0     0  0
 25 26  1  0     0  0
 26 27  1  0     0  0
 27 28  1  0     0  0
 28 29  1  0     0  0
 29 30  1  0     0  0
 30 31  1  0     0  0
 31 32  1  0     0  0
 32 33  1  0     0  0
 33 34  1  0     0  0
 34 35  1  0     0  0
 35 36  1  0     0  0
 36 37  1  0     0  0
M  END
> <standard_type>
IC50

> <# Confs.>
25

> <canonical_smiles>
O=C1C2=C(C(C(CCCCCCCCCCCCCCCCC)=O)=NN2)C(N1C3=CC=CC(OC)=C3)=O

> <standard_relation>
=

> <predicted_activity_value>
6.619788758288394

> <actual_activity_value>
6.2839966563652006

> <Compound>
6

> <publication_ID>
nan

> <standard_units>
nM

> hash
7505586458437048816

$$$$
6_
XXILIB    08252103493D 0   0.00000     0.00000

 37 39  0     1  0            999 V2000
  -15.0640   -1.0683    7.9360 O   0  0  0  0  0  2           0  0  0
  -10.5065    0.0946    8.5336 O   0  0  0  0  0  2           0  0  0
  -10.1169    0.0363    3.8493 O   0  0  0  0  0  2           0  0  0
   -7.0599   -0.0000    3.0779 O   0  0  0  0  0  2           0  0  0
   -7.4818    0.0357    7.5241 N   0  0  0  0  0  3           0  0  0
   -6.5186    0.0153    6.5719 N   0  0  0  0  0  3           0  0  0
  -10.7643    0.0719    6.1548 N   0  0  2  0  0  3           0  0  0
  -14.3954   -0.4709    6.9111 C   0  0  0  0  0  4           0  0  0
   -8.7162    0.0495    6.9890 C   0  0  0  0  0  4           0  0  0
   -7.1928    0.0155    5.3993 C   0  0  0  0  0  4           0  0  0
  -12.1808    0.0927    6.0365 C   0  0  0  0  0  4           0  0  0
   -8.5733    0.0346    5.6368 C   0  0  0  0  0  4           0  0  0
  -12.9969   -0.4871    7.0234 C   0  0  0  0  0  4           0  0  0
  -14.9899    0.1312    5.8012 C   0  0  0  0  0  4           0  0  0
  -12.7994    0.6915    4.9296 C   0  0  0  0  0  4           0  0  0
  -14.1911    0.7090    4.8150 C   0  0  0  0  0  4           0  0  0
  -10.0820    0.0745    7.3896 C   0  0  0  0  0  4           0  0  0
   -9.8850    0.0469    5.0470 C   0  0  0  0  0  4           0  0  0
   -6.4594   -0.0000    4.1518 C   0  0  0  0  0  4           0  0  0
  -16.4876   -1.0877    7.8856 C   0  0  0  0  0  4           0  0  0
   -4.9437    0.0000    4.1750 C   0  0  0  0  0  4           0  0  0
   -4.3140   -0.0000    2.7832 C   0  0  0  0  0  4           0  0  0
   -2.7866    0.0000    2.7832 C   0  0  0  0  0  4           0  0  0
   -2.1570   -0.0000    1.3916 C   0  0  0  0  0  4           0  0  0
   -0.6296   -0.0000    1.3916 C   0  0  0  0  0  4           0  0  0
    0.0000   -0.0000    0.0000 C   0  0  0  0  0  4           0  0  0
    1.5277   -0.0000    0.0000 C   0  0  0  0  0  4           0  0  0
    2.1573    0.0000   -1.3916 C   0  0  0  0  0  4           0  0  0
    3.6847   -0.0000   -1.3916 C   0  0  0  0  0  4           0  0  0
    4.3143    0.0000   -2.7832 C   0  0  0  0  0  4           0  0  0
    5.8416   -0.0000   -2.7832 C   0  0  0  0  0  4           0  0  0
    6.4712    0.0000   -4.1748 C   0  0  0  0  0  4           0  0  0
    7.9986   -0.0000   -4.1748 C   0  0  0  0  0  4           0  0  0
    8.6282    0.0000   -5.5664 C   0  0  0  0  0  4           0  0  0
    8.2538    1.2052   -6.4268 C   0  0  0  0  0  4           0  0  0
    8.8834    1.2052   -7.8184 C   0  0  0  0  0  4           0  0  0
    8.4672    2.4312   -8.6157 C   0  0  0  0  0  4           0  0  0
  1  8  1  0     0  0
  1 20  1  0     0  0
  2 17  2  0     0  0
  3 18  2  0     0  0
  4 19  2  0     0  0
  5  6  1  0     0  0
  5  9  1  0     0  0
  6 10  2  0     0  0
  7 11  1  0     0  0
  7 17  1  0     0  0
  7 18  1  0     0  0
  8 13  2  0     0  0
  8 14  1  0     0  0
  9 12  2  0     0  0
  9 17  1  0     0  0
 10 12  1  0     0  0
 10 19  1  0     0  0
 11 13  1  0     0  0
 11 15  2  0     0  0
 12 18  1  0     0  0
 14 16  2  0     0  0
 15 16  1  0     0  0
 19 21  1  0     0  0
 21 22  1  0     0  0
 22 23  1  0     0  0
 23 24  1  0     0  0
 24 25  1  0     0  0
 25 26  1  0     0  0
 26 27  1  0     0  0
 27 28  1  0     0  0
 28 29  1  0     0  0
 29 30  1  0     0  0
 30 31  1  0     0  0
 31 32  1  0     0  0
 32 33  1  0     0  0
 33 34  1  0     0  0
 34 35  1  0     0  0
 35 36  1  0     0  0
 36 37  1  0     0  0
M  END
> <standard_type>
IC50

> <# Confs.>
25

> <canonical_smiles>
O=C1C2=C(C(C(CCCCCCCCCCCCCCCCC)=O)=NN2)C(N1C3=CC=CC(OC)=C3)=O

> <standard_relation>
=

> <predicted_activity_value>
6.619788758288394

> <actual_activity_value>
6.2839966563652006

> <Compound>
6

> <publication_ID>
nan

> <standard_units>
nM

> hash
7505586458437048816

$$$$
6_
XXILIB    08252103493D 0   0.00000     0.00000

 37 39  0     1  0            999 V2000
  -15.0287   -0.7516    8.0803 O   0  0  0  0  0  2           0  0  0
  -10.4981   -2.1397    7.9857 O   0  0  0  0  0  2           0  0  0
  -10.1176    0.1546    3.9004 O   0  0  0  0  0  2           0  0  0
   -7.0620    0.5323    3.2205 O   0  0  0  0  0  2           0  0  0
   -7.4751   -1.6629    7.0882 N   0  0  0  0  0  3           0  0  0
   -6.5138   -1.1972    6.2553 N   0  0  0  0  0  3           0  0  0
  -10.7606   -0.9721    5.9137 N   0  0  2  0  0  3           0  0  0
  -14.3765   -0.7929    6.8857 C   0  0  0  0  0  4           0  0  0
   -8.7107   -1.3929    6.6291 C   0  0  0  0  0  4           0  0  0
   -7.1904   -0.6159    5.2384 C   0  0  0  0  0  4           0  0  0
  -12.1774   -0.9058    5.8186 C   0  0  0  0  0  4           0  0  0
   -8.5704   -0.7286    5.4509 C   0  0  0  0  0  4           0  0  0
  -12.9775   -0.8569    6.9734 C   0  0  0  0  0  4           0  0  0
  -14.9874   -0.7770    5.6310 C   0  0  0  0  0  4           0  0  0
  -12.8125   -0.8894    4.5685 C   0  0  0  0  0  4           0  0  0
  -14.2046   -0.8260    4.4781 C   0  0  0  0  0  4           0  0  0
  -10.0758   -1.5820    6.9858 C   0  0  0  0  0  4           0  0  0
   -9.8834   -0.4332    4.9435 C   0  0  0  0  0  4           0  0  0
   -6.4594   -0.0000    4.1518 C   0  0  0  0  0  4           0  0  0
  -16.4518   -0.6858    8.0644 C   0  0  0  0  0  4           0  0  0
   -4.9437    0.0000    4.1750 C   0  0  0  0  0  4           0  0  0
   -4.3140   -0.0000    2.7832 C   0  0  0  0  0  4           0  0  0
   -2.7866    0.0000    2.7832 C   0  0  0  0  0  4           0  0  0
   -2.1570   -0.0000    1.3916 C   0  0  0  0  0  4           0  0  0
   -0.6296   -0.0000    1.3916 C   0  0  0  0  0  4           0  0  0
    0.0000   -0.0000    0.0000 C   0  0  0  0  0  4           0  0  0
    1.5277   -0.0000    0.0000 C   0  0  0  0  0  4           0  0  0
    2.1573    0.0000   -1.3916 C   0  0  0  0  0  4           0  0  0
    3.6847   -0.0000   -1.3916 C   0  0  0  0  0  4           0  0  0
    4.3143    0.0000   -2.7832 C   0  0  0  0  0  4           0  0  0
    5.8416   -0.0000   -2.7832 C   0  0  0  0  0  4           0  0  0
    6.4712    0.0000   -4.1748 C   0  0  0  0  0  4           0  0  0
    7.9986   -0.0000   -4.1748 C   0  0  0  0  0  4           0  0  0
    8.6282    0.0000   -5.5664 C   0  0  0  0  0  4           0  0  0
   10.1556   -0.0000   -5.5664 C   0  0  0  0  0  4           0  0  0
   10.7852    0.0000   -6.9579 C   0  0  0  0  0  4           0  0  0
   12.3038   -0.0000   -6.8799 C   0  0  0  0  0  4           0  0  0
  1  8  1  0     0  0
  1 20  1  0     0  0
  2 17  2  0     0  0
  3 18  2  0     0  0
  4 19  2  0     0  0
  5  6  1  0     0  0
  5  9  1  0     0  0
  6 10  2  0     0  0
  7 11  1  0     0  0
  7 17  1  0     0  0
  7 18  1  0     0  0
  8 13  2  0     0  0
  8 14  1  0     0  0
  9 12  2  0     0  0
  9 17  1  0     0  0
 10 12  1  0     0  0
 10 19  1  0     0  0
 11 13  1  0     0  0
 11 15  2  0     0  0
 12 18  1  0     0  0
 14 16  2  0     0  0
 15 16  1  0     0  0
 19 21  1  0     0  0
 21 22  1  0     0  0
 22 23  1  0     0  0
 23 24  1  0     0  0
 24 25  1  0     0  0
 25 26  1  0     0  0
 26 27  1  0     0  0
 27 28  1  0     0  0
 28 29  1  0     0  0
 29 30  1  0     0  0
 30 31  1  0     0  0
 31 32  1  0     0  0
 32 33  1  0     0  0
 33 34  1  0     0  0
 34 35  1  0     0  0
 35 36  1  0     0  0
 36 37  1  0     0  0
M  END
> <standard_type>
IC50

> <# Confs.>
25

> <canonical_smiles>
O=C1C2=C(C(C(CCCCCCCCCCCCCCCCC)=O)=NN2)C(N1C3=CC=CC(OC)=C3)=O

> <standard_relation>
=

> <predicted_activity_value>
6.619788758288394

> <actual_activity_value>
6.2839966563652006

> <Compound>
6

> <publication_ID>
nan

> <standard_units>
nM

> hash
7505586458437048816

$$$$
6_
XXILIB    08252103493D 0   0.00000     0.00000

 37 39  0     1  0            999 V2000
    0.3140    8.3421   14.8526 O   0  0  0  0  0  2           0  0  0
   -2.1572    5.1963   12.3111 O   0  0  0  0  0  2           0  0  0
    0.3401    6.5902    8.5803 O   0  0  0  0  0  2           0  0  0
   -0.0033    4.4717    6.2705 O   0  0  0  0  0  2           0  0  0
   -2.3765    3.1996    9.8340 N   0  0  0  0  0  3           0  0  0
   -2.0923    2.7897    8.5746 N   0  0  0  0  0  3           0  0  0
   -0.7719    6.2602   10.6757 N   0  0  2  0  0  3           0  0  0
    0.2219    8.5102   13.5045 C   0  0  0  0  0  4           0  0  0
   -1.7615    4.3577   10.1356 C   0  0  0  0  0  4           0  0  0
   -1.2662    3.7402    8.0806 C   0  0  0  0  0  4           0  0  0
   -0.3416    7.4097   11.3929 C   0  0  0  0  0  4           0  0  0
   -1.0465    4.7350    9.0421 C   0  0  0  0  0  4           0  0  0
   -0.2010    7.3782   12.7912 C   0  0  0  0  0  4           0  0  0
    0.5092    9.6898   12.8161 C   0  0  0  0  0  4           0  0  0
   -0.0481    8.6056   10.7219 C   0  0  0  0  0  4           0  0  0
    0.3727    9.7338   11.4291 C   0  0  0  0  0  4           0  0  0
   -1.6326    5.2797   11.2124 C   0  0  0  0  0  4           0  0  0
   -0.3830    5.9744    9.3460 C   0  0  0  0  0  4           0  0  0
   -0.7555    3.6146    6.7324 C   0  0  0  0  0  4           0  0  0
    0.7379    9.4523   15.6384 C   0  0  0  0  0  4           0  0  0
   -1.1401    2.4103    5.8959 C   0  0  0  0  0  4           0  0  0
   -0.5104    2.4103    4.5040 C   0  0  0  0  0  4           0  0  0
   -0.8848    1.2052    3.6436 C   0  0  0  0  0  4           0  0  0
   -0.2552    1.2052    2.2520 C   0  0  0  0  0  4           0  0  0
   -0.6296    0.0000    1.3916 C   0  0  0  0  0  4           0  0  0
    0.0000    0.0000    0.0000 C   0  0  0  0  0  4           0  0  0
    1.5277   -0.0000    0.0000 C   0  0  0  0  0  4           0  0  0
    2.1573    0.0000   -1.3916 C   0  0  0  0  0  4           0  0  0
    3.6847   -0.0000   -1.3916 C   0  0  0  0  0  4           0  0  0
    4.3143    0.0000   -2.7832 C   0  0  0  0  0  4           0  0  0
    5.8416   -0.0000   -2.7832 C   0  0  0  0  0  4           0  0  0
    6.4712    0.0000   -4.1748 C   0  0  0  0  0  4           0  0  0
    7.9986   -0.0000   -4.1748 C   0  0  0  0  0  4           0  0  0
    8.6282    0.0000   -5.5664 C   0  0  0  0  0  4           0  0  0
   10.1556   -0.0000   -5.5664 C   0  0  0  0  0  4           0  0  0
   10.7852    0.0000   -6.9579 C   0  0  0  0  0  4           0  0  0
   12.3038   -0.0000   -6.8799 C   0  0  0  0  0  4           0  0  0
  1  8  1  0     0  0
  1 20  1  0     0  0
  2 17  2  0     0  0
  3 18  2  0     0  0
  4 19  2  0     0  0
  5  6  1  0     0  0
  5  9  1  0     0  0
  6 10  2  0     0  0
  7 11  1  0     0  0
  7 17  1  0     0  0
  7 18  1  0     0  0
  8 13  2  0     0  0
  8 14  1  0     0  0
  9 12  2  0     0  0
  9 17  1  0     0  0
 10 12  1  0     0  0
 10 19  1  0     0  0
 11 13  1  0     0  0
 11 15  2  0     0  0
 12 18  1  0     0  0
 14 16  2  0     0  0
 15 16  1  0     0  0
 19 21  1  0     0  0
 21 22  1  0     0  0
 22 23  1  0     0  0
 23 24  1  0     0  0
 24 25  1  0     0  0
 25 26  1  0     0  0
 26 27  1  0     0  0
 27 28  1  0     0  0
 28 29  1  0     0  0
 29 30  1  0     0  0
 30 31  1  0     0  0
 31 32  1  0     0  0
 32 33  1  0     0  0
 33 34  1  0     0  0
 34 35  1  0     0  0
 35 36  1  0     0  0
 36 37  1  0     0  0
M  END
> <standard_type>
IC50

> <# Confs.>
25

> <canonical_smiles>
O=C1C2=C(C(C(CCCCCCCCCCCCCCCCC)=O)=NN2)C(N1C3=CC=CC(OC)=C3)=O

> <standard_relation>
=

> <predicted_activity_value>
6.619788758288394

> <actual_activity_value>
6.2839966563652006

> <Compound>
6

> <publication_ID>
nan

> <standard_units>
nM

> hash
7505586458437048816

$$$$
6_
XXILIB    08252103493D 0   0.00000     0.00000

 37 39  0     1  0            999 V2000
  -15.0261    1.3788    7.9123 O   0  0  0  0  0  2           0  0  0
  -10.5065    0.0946    8.5336 O   0  0  0  0  0  2           0  0  0
  -10.1169    0.0363    3.8493 O   0  0  0  0  0  2           0  0  0
   -7.0599   -0.0000    3.0779 O   0  0  0  0  0  2           0  0  0
   -7.4818    0.0357    7.5241 N   0  0  0  0  0  3           0  0  0
   -6.5186    0.0153    6.5719 N   0  0  0  0  0  3           0  0  0
  -10.7643    0.0719    6.1548 N   0  0  2  0  0  3           0  0  0
  -14.3767    0.7408    6.8997 C   0  0  0  0  0  4           0  0  0
   -8.7162    0.0495    6.9890 C   0  0  0  0  0  4           0  0  0
   -7.1928    0.0155    5.3993 C   0  0  0  0  0  4           0  0  0
  -12.1808    0.0927    6.0365 C   0  0  0  0  0  4           0  0  0
   -8.5733    0.0346    5.6368 C   0  0  0  0  0  4           0  0  0
  -12.9781    0.7185    7.0105 C   0  0  0  0  0  4           0  0  0
  -14.9901    0.1320    5.8038 C   0  0  0  0  0  4           0  0  0
  -12.8183   -0.5132    4.9443 C   0  0  0  0  0  4           0  0  0
  -14.2101   -0.4928    4.8314 C   0  0  0  0  0  4           0  0  0
  -10.0820    0.0745    7.3896 C   0  0  0  0  0  4           0  0  0
   -9.8850    0.0469    5.0470 C   0  0  0  0  0  4           0  0  0
   -6.4594   -0.0000    4.1518 C   0  0  0  0  0  4           0  0  0
  -16.4487    1.4387    7.8627 C   0  0  0  0  0  4           0  0  0
   -4.9437    0.0000    4.1750 C   0  0  0  0  0  4           0  0  0
   -4.3140   -0.0000    2.7832 C   0  0  0  0  0  4           0  0  0
   -2.7866    0.0000    2.7832 C   0  0  0  0  0  4           0  0  0
   -2.1570   -0.0000    1.3916 C   0  0  0  0  0  4           0  0  0
   -0.6296   -0.0000    1.3916 C   0  0  0  0  0  4           0  0  0
    0.0000   -0.0000    0.0000 C   0  0  0  0  0  4           0  0  0
    1.5277    0.0000   -0.0000 C   0  0  0  0  0  4           0  0  0
    2.1573   -1.2052    0.6958 C   0  0  0  0  0  4           0  0  0
    3.6847   -1.2052    0.6958 C   0  0  0  0  0  4           0  0  0
    4.3143   -2.4103    1.3916 C   0  0  0  0  0  4           0  0  0
    5.8416   -2.4103    1.3916 C   0  0  0  0  0  4           0  0  0
    6.4712   -3.6155    2.0874 C   0  0  0  0  0  4           0  0  0
    7.9986   -3.6155    2.0874 C   0  0  0  0  0  4           0  0  0
    8.6282   -4.8206    2.7832 C   0  0  0  0  0  4           0  0  0
   10.1556   -4.8206    2.7832 C   0  0  0  0  0  4           0  0  0
   10.7852   -6.0258    3.4790 C   0  0  0  0  0  4           0  0  0
   12.3038   -5.9582    3.4400 C   0  0  0  0  0  4           0  0  0
  1  8  1  0     0  0
  1 20  1  0     0  0
  2 17  2  0     0  0
  3 18  2  0     0  0
  4 19  2  0     0  0
  5  6  1  0     0  0
  5  9  1  0     0  0
  6 10  2  0     0  0
  7 11  1  0     0  0
  7 17  1  0     0  0
  7 18  1  0     0  0
  8 13  2  0     0  0
  8 14  1  0     0  0
  9 12  2  0     0  0
  9 17  1  0     0  0
 10 12  1  0     0  0
 10 19  1  0     0  0
 11 13  1  0     0  0
 11 15  2  0     0  0
 12 18  1  0     0  0
 14 16  2  0     0  0
 15 16  1  0     0  0
 19 21  1  0     0  0
 21 22  1  0     0  0
 22 23  1  0     0  0
 23 24  1  0     0  0
 24 25  1  0     0  0
 25 26  1  0     0  0
 26 27  1  0     0  0
 27 28  1  0     0  0
 28 29  1  0     0  0
 29 30  1  0     0  0
 30 31  1  0     0  0
 31 32  1  0     0  0
 32 33  1  0     0  0
 33 34  1  0     0  0
 34 35  1  0     0  0
 35 36  1  0     0  0
 36 37  1  0     0  0
M  END
> <standard_type>
IC50

> <# Confs.>
25

> <canonical_smiles>
O=C1C2=C(C(C(CCCCCCCCCCCCCCCCC)=O)=NN2)C(N1C3=CC=CC(OC)=C3)=O

> <standard_relation>
=

> <predicted_activity_value>
6.619788758288394

> <actual_activity_value>
6.2839966563652006

> <Compound>
6

> <publication_ID>
nan

> <standard_units>
nM

> hash
7505586458437048816

$$$$
5_
XXILIB    08252103493D 0   0.00000     0.00000

 36 38  0     1  0            999 V2000
  -12.4521   -1.2074    7.9690 F   0  0  0  0  0  1           0  0  0
  -10.4888   -0.0133    8.4784 O   0  0  0  0  0  2           0  0  0
   -9.9363   -0.0350    3.8072 O   0  0  0  0  0  2           0  0  0
   -6.9384   -0.0000    3.1127 O   0  0  0  0  0  2           0  0  0
   -7.4262   -0.0163    7.5624 N   0  0  0  0  0  3           0  0  0
   -6.4357   -0.0128    6.6355 N   0  0  0  0  0  3           0  0  0
  -10.6669   -0.0241    6.0912 N   0  0  2  0  0  3           0  0  0
  -12.9368   -0.6175    6.8656 C   0  0  0  0  0  4           0  0  0
   -8.6465   -0.0188    6.9944 C   0  0  0  0  0  4           0  0  0
   -7.0792   -0.0127    5.4470 C   0  0  0  0  0  4           0  0  0
  -12.0790   -0.0252    5.9250 C   0  0  0  0  0  4           0  0  0
   -8.4634   -0.0213    5.6478 C   0  0  0  0  0  4           0  0  0
  -14.3218   -0.6185    6.6924 C   0  0  0  0  0  4           0  0  0
  -12.6642    0.5746    4.7964 C   0  0  0  0  0  4           0  0  0
  -14.8801   -0.0233    5.5663 C   0  0  0  0  0  4           0  0  0
  -14.0521    0.5731    4.6192 C   0  0  0  0  0  4           0  0  0
  -10.0256   -0.0188    7.3492 C   0  0  0  0  0  4           0  0  0
   -9.7516   -0.0275    5.0130 C   0  0  0  0  0  4           0  0  0
   -6.3442   -0.0000    4.1907 C   0  0  0  0  0  4           0  0  0
   -4.8306    0.0000    4.2191 C   0  0  0  0  0  4           0  0  0
   -4.2380   -0.0000    2.8129 C   0  0  0  0  0  4           0  0  0
   -2.7117    0.0000    2.8129 C   0  0  0  0  0  4           0  0  0
   -2.1190   -0.0000    1.4064 C   0  0  0  0  0  4           0  0  0
   -0.5927    0.0000    1.4064 C   0  0  0  0  0  4           0  0  0
    0.0000   -0.0000    0.0000 C   0  0  0  0  0  4           0  0  0
    1.5260    0.0000    0.0000 C   0  0  0  0  0  4           0  0  0
    2.1188    0.0000   -1.4064 C   0  0  0  0  0  4           0  0  0
    3.6450    0.0000   -1.4064 C   0  0  0  0  0  4           0  0  0
    4.2378    0.0000   -2.8129 C   0  0  0  0  0  4           0  0  0
    5.7640    0.0000   -2.8129 C   0  0  0  0  0  4           0  0  0
    6.3567    0.0000   -4.2193 C   0  0  0  0  0  4           0  0  0
    7.8830    0.0000   -4.2193 C   0  0  0  0  0  4           0  0  0
    8.4757    0.0000   -5.6258 C   0  0  0  0  0  4           0  0  0
   10.0019    0.0000   -5.6258 C   0  0  0  0  0  4           0  0  0
   10.5947    0.0000   -7.0322 C   0  0  0  0  0  4           0  0  0
   12.1162    0.0000   -7.0310 C   0  0  0  0  0  4           0  0  0
  1  8  1  0     0  0
  2 17  2  0     0  0
  3 18  2  0     0  0
  4 19  2  0     0  0
  5  6  1  0     0  0
  5  9  1  0     0  0
  6 10  2  0     0  0
  7 11  1  0     0  0
  7 17  1  0     0  0
  7 18  1  0     0  0
  8 11  1  0     0  0
  8 13  2  0     0  0
  9 12  2  0     0  0
  9 17  1  0     0  0
 10 12  1  0     0  0
 10 19  1  0     0  0
 11 14  2  0     0  0
 12 18  1  0     0  0
 13 15  1  0     0  0
 14 16  1  0     0  0
 15 16  2  0     0  0
 19 20  1  0     0  0
 20 21  1  0     0  0
 21 22  1  0     0  0
 22 23  1  0     0  0
 23 24  1  0     0  0
 24 25  1  0     0  0
 25 26  1  0     0  0
 26 27  1  0     0  0
 27 28  1  0     0  0
 28 29  1  0     0  0
 29 30  1  0     0  0
 30 31  1  0     0  0
 31 32  1  0     0  0
 32 33  1  0     0  0
 33 34  1  0     0  0
 34 35  1  0     0  0
 35 36  1  0     0  0
M  END
> <standard_type>
IC50

> <# Confs.>
25

> <canonical_smiles>
O=C1C2=C(C(C(CCCCCCCCCCCCCCCCC)=O)=NN2)C(N1C3=CC=CC=C3F)=O

> <standard_relation>
=

> <predicted_activity_value>
6.494850021680094

> <actual_activity_value>
6.346787486224656

> <Compound>
5

> <publication_ID>
nan

> <standard_units>
nM

> hash
14234681689596454840

$$$$
5_
XXILIB    08252103493D 0   0.00000     0.00000

 36 38  0     1  0            999 V2000
  -12.4524    1.1795    7.9558 F   0  0  0  0  0  1           0  0  0
  -10.4888   -0.0133    8.4784 O   0  0  0  0  0  2           0  0  0
   -9.9363   -0.0350    3.8072 O   0  0  0  0  0  2           0  0  0
   -6.9384   -0.0000    3.1127 O   0  0  0  0  0  2           0  0  0
   -7.4262   -0.0163    7.5624 N   0  0  0  0  0  3           0  0  0
   -6.4357   -0.0128    6.6355 N   0  0  0  0  0  3           0  0  0
  -10.6669   -0.0241    6.0912 N   0  0  2  0  0  3           0  0  0
  -12.9372    0.5742    6.8608 C   0  0  0  0  0  4           0  0  0
   -8.6465   -0.0188    6.9944 C   0  0  0  0  0  4           0  0  0
   -7.0792   -0.0127    5.4470 C   0  0  0  0  0  4           0  0  0
  -12.0790   -0.0252    5.9250 C   0  0  0  0  0  4           0  0  0
   -8.4634   -0.0213    5.6478 C   0  0  0  0  0  4           0  0  0
  -14.3228    0.5645    6.6924 C   0  0  0  0  0  4           0  0  0
  -12.6640   -0.6370    4.8027 C   0  0  0  0  0  4           0  0  0
  -14.8813   -0.0502    5.5770 C   0  0  0  0  0  4           0  0  0
  -14.0527   -0.6501    4.6327 C   0  0  0  0  0  4           0  0  0
  -10.0256   -0.0188    7.3492 C   0  0  0  0  0  4           0  0  0
   -9.7516   -0.0275    5.0130 C   0  0  0  0  0  4           0  0  0
   -6.3442   -0.0000    4.1907 C   0  0  0  0  0  4           0  0  0
   -4.8306    0.0000    4.2191 C   0  0  0  0  0  4           0  0  0
   -4.2380   -0.0000    2.8129 C   0  0  0  0  0  4           0  0  0
   -2.7117    0.0000    2.8129 C   0  0  0  0  0  4           0  0  0
   -2.1190   -0.0000    1.4064 C   0  0  0  0  0  4           0  0  0
   -0.5927    0.0000    1.4064 C   0  0  0  0  0  4           0  0  0
    0.0000   -0.0000    0.0000 C   0  0  0  0  0  4           0  0  0
    1.5260    0.0000    0.0000 C   0  0  0  0  0  4           0  0  0
    2.1188    0.0000   -1.4064 C   0  0  0  0  0  4           0  0  0
    3.6450    0.0000   -1.4064 C   0  0  0  0  0  4           0  0  0
    4.2378    0.0000   -2.8129 C   0  0  0  0  0  4           0  0  0
    5.7640    0.0000   -2.8129 C   0  0  0  0  0  4           0  0  0
    6.3567    0.0000   -4.2193 C   0  0  0  0  0  4           0  0  0
    7.8830    0.0000   -4.2193 C   0  0  0  0  0  4           0  0  0
    8.4757    0.0000   -5.6258 C   0  0  0  0  0  4           0  0  0
   10.0019    0.0000   -5.6258 C   0  0  0  0  0  4           0  0  0
   10.5947    0.0000   -7.0322 C   0  0  0  0  0  4           0  0  0
   12.1162    0.0000   -7.0310 C   0  0  0  0  0  4           0  0  0
  1  8  1  0     0  0
  2 17  2  0     0  0
  3 18  2  0     0  0
  4 19  2  0     0  0
  5  6  1  0     0  0
  5  9  1  0     0  0
  6 10  2  0     0  0
  7 11  1  0     0  0
  7 17  1  0     0  0
  7 18  1  0     0  0
  8 11  1  0     0  0
  8 13  2  0     0  0
  9 12  2  0     0  0
  9 17  1  0     0  0
 10 12  1  0     0  0
 10 19  1  0     0  0
 11 14  2  0     0  0
 12 18  1  0     0  0
 13 15  1  0     0  0
 14 16  1  0     0  0
 15 16  2  0     0  0
 19 20  1  0     0  0
 20 21  1  0     0  0
 21 22  1  0     0  0
 22 23  1  0     0  0
 23 24  1  0     0  0
 24 25  1  0     0  0
 25 26  1  0     0  0
 26 27  1  0     0  0
 27 28  1  0     0  0
 28 29  1  0     0  0
 29 30  1  0     0  0
 30 31  1  0     0  0
 31 32  1  0     0  0
 32 33  1  0     0  0
 33 34  1  0     0  0
 34 35  1  0     0  0
 35 36  1  0     0  0
M  END
> <standard_type>
IC50

> <# Confs.>
25

> <canonical_smiles>
O=C1C2=C(C(C(CCCCCCCCCCCCCCCCC)=O)=NN2)C(N1C3=CC=CC=C3F)=O

> <standard_relation>
=

> <predicted_activity_value>
6.494850021680094

> <actual_activity_value>
6.346787486224656

> <Compound>
5

> <publication_ID>
nan

> <standard_units>
nM

> hash
14234681689596454840

$$$$
5_
XXILIB    08252103493D 0   0.00000     0.00000

 36 38  0     1  0            999 V2000
  -12.3561   -3.8926    2.8699 F   0  0  0  0  0  1           0  0  0
  -10.4064   -4.3649    4.1009 O   0  0  0  0  0  2           0  0  0
   -9.9415    0.3158    4.0880 O   0  0  0  0  0  2           0  0  0
   -6.9585    1.0666    4.1791 O   0  0  0  0  0  2           0  0  0
   -7.3621   -3.3915    4.1552 N   0  0  0  0  0  3           0  0  0
   -6.3895   -2.4462    4.1770 N   0  0  0  0  0  3           0  0  0
  -10.6292   -1.9815    4.0860 N   0  0  2  0  0  3           0  0  0
  -12.8725   -2.7985    3.4502 C   0  0  0  0  0  4           0  0  0
   -8.5926   -2.8466    4.1295 C   0  0  0  0  0  4           0  0  0
   -7.0551   -1.2699    4.1646 C   0  0  0  0  0  4           0  0  0
  -12.0439   -1.8419    4.0582 C   0  0  0  0  0  4           0  0  0
   -8.4349   -1.4967    4.1300 C   0  0  0  0  0  4           0  0  0
  -14.2603   -2.6513    3.4232 C   0  0  0  0  0  4           0  0  0
  -12.6614   -0.7245    4.6466 C   0  0  0  0  0  4           0  0  0
  -14.8507   -1.5360    4.0073 C   0  0  0  0  0  4           0  0  0
  -14.0521   -0.5735    4.6189 C   0  0  0  0  0  4           0  0  0
   -9.9645   -3.2273    4.1038 C   0  0  0  0  0  4           0  0  0
   -9.7344   -0.8863    4.0994 C   0  0  0  0  0  4           0  0  0
   -6.3442   -0.0000    4.1907 C   0  0  0  0  0  4           0  0  0
   -4.8306    0.0000    4.2191 C   0  0  0  0  0  4           0  0  0
   -4.2380   -0.0000    2.8129 C   0  0  0  0  0  4           0  0  0
   -2.7117    0.0000    2.8129 C   0  0  0  0  0  4           0  0  0
   -2.1190   -0.0000    1.4064 C   0  0  0  0  0  4           0  0  0
   -0.5927    0.0000    1.4064 C   0  0  0  0  0  4           0  0  0
    0.0000   -0.0000    0.0000 C   0  0  0  0  0  4           0  0  0
    1.5260    0.0000    0.0000 C   0  0  0  0  0  4           0  0  0
    2.1188    0.0000   -1.4064 C   0  0  0  0  0  4           0  0  0
    3.6450    0.0000   -1.4064 C   0  0  0  0  0  4           0  0  0
    4.2378    0.0000   -2.8129 C   0  0  0  0  0  4           0  0  0
    5.7640    0.0000   -2.8129 C   0  0  0  0  0  4           0  0  0
    6.3567    0.0000   -4.2193 C   0  0  0  0  0  4           0  0  0
    7.8830    0.0000   -4.2193 C   0  0  0  0  0  4           0  0  0
    8.4757    0.0000   -5.6258 C   0  0  0  0  0  4           0  0  0
   10.0019    0.0000   -5.6258 C   0  0  0  0  0  4           0  0  0
   10.5947    0.0000   -7.0322 C   0  0  0  0  0  4           0  0  0
   12.1162    0.0000   -7.0310 C   0  0  0  0  0  4           0  0  0
  1  8  1  0     0  0
  2 17  2  0     0  0
  3 18  2  0     0  0
  4 19  2  0     0  0
  5  6  1  0     0  0
  5  9  1  0     0  0
  6 10  2  0     0  0
  7 11  1  0     0  0
  7 17  1  0     0  0
  7 18  1  0     0  0
  8 11  1  0     0  0
  8 13  2  0     0  0
  9 12  2  0     0  0
  9 17  1  0     0  0
 10 12  1  0     0  0
 10 19  1  0     0  0
 11 14  2  0     0  0
 12 18  1  0     0  0
 13 15  1  0     0  0
 14 16  1  0     0  0
 15 16  2  0     0  0
 19 20  1  0     0  0
 20 21  1  0     0  0
 21 22  1  0     0  0
 22 23  1  0     0  0
 23 24  1  0     0  0
 24 25  1  0     0  0
 25 26  1  0     0  0
 26 27  1  0     0  0
 27 28  1  0     0  0
 28 29  1  0     0  0
 29 30  1  0     0  0
 30 31  1  0     0  0
 31 32  1  0     0  0
 32 33  1  0     0  0
 33 34  1  0     0  0
 34 35  1  0     0  0
 35 36  1  0     0  0
M  END
> <standard_type>
IC50

> <# Confs.>
25

> <canonical_smiles>
O=C1C2=C(C(C(CCCCCCCCCCCCCCCCC)=O)=NN2)C(N1C3=CC=CC=C3F)=O

> <standard_relation>
=

> <predicted_activity_value>
6.494850021680094

> <actual_activity_value>
6.346787486224656

> <Compound>
5

> <publication_ID>
nan

> <standard_units>
nM

> hash
14234681689596454840

$$$$
5_
XXILIB    08252103493D 0   0.00000     0.00000

 36 38  0     1  0            999 V2000
  -12.4016   -3.8794    5.2564 F   0  0  0  0  0  1           0  0  0
  -10.4064   -4.3649    4.1009 O   0  0  0  0  0  2           0  0  0
   -9.9415    0.3158    4.0880 O   0  0  0  0  0  2           0  0  0
   -6.9585    1.0666    4.1791 O   0  0  0  0  0  2           0  0  0
   -7.3621   -3.3915    4.1552 N   0  0  0  0  0  3           0  0  0
   -6.3895   -2.4462    4.1770 N   0  0  0  0  0  3           0  0  0
  -10.6292   -1.9815    4.0860 N   0  0  2  0  0  3           0  0  0
  -12.8954   -2.7937    4.6418 C   0  0  0  0  0  4           0  0  0
   -8.5926   -2.8466    4.1295 C   0  0  0  0  0  4           0  0  0
   -7.0551   -1.2699    4.1646 C   0  0  0  0  0  4           0  0  0
  -12.0439   -1.8419    4.0582 C   0  0  0  0  0  4           0  0  0
   -8.4349   -1.4967    4.1300 C   0  0  0  0  0  4           0  0  0
  -14.2835   -2.6514    4.6059 C   0  0  0  0  0  4           0  0  0
  -12.6383   -0.7308    3.4352 C   0  0  0  0  0  4           0  0  0
  -14.8513   -1.5467    3.9804 C   0  0  0  0  0  4           0  0  0
  -14.0294   -0.5870    3.3959 C   0  0  0  0  0  4           0  0  0
   -9.9645   -3.2273    4.1038 C   0  0  0  0  0  4           0  0  0
   -9.7344   -0.8863    4.0994 C   0  0  0  0  0  4           0  0  0
   -6.3442   -0.0000    4.1907 C   0  0  0  0  0  4           0  0  0
   -4.8306    0.0000    4.2191 C   0  0  0  0  0  4           0  0  0
   -4.2380   -0.0000    2.8129 C   0  0  0  0  0  4           0  0  0
   -2.7117    0.0000    2.8129 C   0  0  0  0  0  4           0  0  0
   -2.1190   -0.0000    1.4064 C   0  0  0  0  0  4           0  0  0
   -0.5927    0.0000    1.4064 C   0  0  0  0  0  4           0  0  0
    0.0000   -0.0000    0.0000 C   0  0  0  0  0  4           0  0  0
    1.5260    0.0000    0.0000 C   0  0  0  0  0  4           0  0  0
    2.1188    0.0000   -1.4064 C   0  0  0  0  0  4           0  0  0
    3.6450    0.0000   -1.4064 C   0  0  0  0  0  4           0  0  0
    4.2378    0.0000   -2.8129 C   0  0  0  0  0  4           0  0  0
    5.7640    0.0000   -2.8129 C   0  0  0  0  0  4           0  0  0
    6.3567    0.0000   -4.2193 C   0  0  0  0  0  4           0  0  0
    7.8830    0.0000   -4.2193 C   0  0  0  0  0  4           0  0  0
    8.4757    0.0000   -5.6258 C   0  0  0  0  0  4           0  0  0
   10.0019    0.0000   -5.6258 C   0  0  0  0  0  4           0  0  0
   10.5947    0.0000   -7.0322 C   0  0  0  0  0  4           0  0  0
   12.1162    0.0000   -7.0310 C   0  0  0  0  0  4           0  0  0
  1  8  1  0     0  0
  2 17  2  0     0  0
  3 18  2  0     0  0
  4 19  2  0     0  0
  5  6  1  0     0  0
  5  9  1  0     0  0
  6 10  2  0     0  0
  7 11  1  0     0  0
  7 17  1  0     0  0
  7 18  1  0     0  0
  8 11  1  0     0  0
  8 13  2  0     0  0
  9 12  2  0     0  0
  9 17  1  0     0  0
 10 12  1  0     0  0
 10 19  1  0     0  0
 11 14  2  0     0  0
 12 18  1  0     0  0
 13 15  1  0     0  0
 14 16  1  0     0  0
 15 16  2  0     0  0
 19 20  1  0     0  0
 20 21  1  0     0  0
 21 22  1  0     0  0
 22 23  1  0     0  0
 23 24  1  0     0  0
 24 25  1  0     0  0
 25 26  1  0     0  0
 26 27  1  0     0  0
 27 28  1  0     0  0
 28 29  1  0     0  0
 29 30  1  0     0  0
 30 31  1  0     0  0
 31 32  1  0     0  0
 32 33  1  0     0  0
 33 34  1  0     0  0
 34 35  1  0     0  0
 35 36  1  0     0  0
M  END
> <standard_type>
IC50

> <# Confs.>
25

> <canonical_smiles>
O=C1C2=C(C(C(CCCCCCCCCCCCCCCCC)=O)=NN2)C(N1C3=CC=CC=C3F)=O

> <standard_relation>
=

> <predicted_activity_value>
6.494850021680094

> <actual_activity_value>
6.346787486224656

> <Compound>
5

> <publication_ID>
nan

> <standard_units>
nM

> hash
14234681689596454840

$$$$
5_
XXILIB    08252103493D 0   0.00000     0.00000

 36 38  0     1  0            999 V2000
  -12.4016    3.8926    5.2843 F   0  0  0  0  0  1           0  0  0
  -10.4069    4.3649    4.1275 O   0  0  0  0  0  2           0  0  0
   -9.9429   -0.3158    4.1579 O   0  0  0  0  0  2           0  0  0
   -6.9585   -1.0666    4.1791 O   0  0  0  0  0  2           0  0  0
   -7.3628    3.3915    4.1878 N   0  0  0  0  0  3           0  0  0
   -6.3899    2.4462    4.2026 N   0  0  0  0  0  3           0  0  0
  -10.6301    1.9815    4.1341 N   0  0  2  0  0  3           0  0  0
  -12.8958    2.7985    4.6850 C   0  0  0  0  0  4           0  0  0
   -8.5933    2.8466    4.1672 C   0  0  0  0  0  4           0  0  0
   -7.0555    1.2699    4.1899 C   0  0  0  0  0  4           0  0  0
  -12.0448    1.8419    4.1086 C   0  0  0  0  0  4           0  0  0
   -8.4357    1.4967    4.1726 C   0  0  0  0  0  4           0  0  0
  -14.2836    2.6513    4.6599 C   0  0  0  0  0  4           0  0  0
  -12.6398    0.7245    3.4975 C   0  0  0  0  0  4           0  0  0
  -14.8516    1.5360    4.0539 C   0  0  0  0  0  4           0  0  0
  -14.0305    0.5735    3.4728 C   0  0  0  0  0  4           0  0  0
   -9.9652    3.2273    4.1413 C   0  0  0  0  0  4           0  0  0
   -9.7354    0.8863    4.1543 C   0  0  0  0  0  4           0  0  0
   -6.3442   -0.0000    4.1907 C   0  0  0  0  0  4           0  0  0
   -4.8306    0.0000    4.2191 C   0  0  0  0  0  4           0  0  0
   -4.2380   -0.0000    2.8129 C   0  0  0  0  0  4           0  0  0
   -2.7117    0.0000    2.8129 C   0  0  0  0  0  4           0  0  0
   -2.1190   -0.0000    1.4064 C   0  0  0  0  0  4           0  0  0
   -0.5927    0.0000    1.4064 C   0  0  0  0  0  4           0  0  0
    0.0000   -0.0000    0.0000 C   0  0  0  0  0  4           0  0  0
    1.5260    0.0000    0.0000 C   0  0  0  0  0  4           0  0  0
    2.1188    0.0000   -1.4064 C   0  0  0  0  0  4           0  0  0
    3.6450    0.0000   -1.4064 C   0  0  0  0  0  4           0  0  0
    4.2378    0.0000   -2.8129 C   0  0  0  0  0  4           0  0  0
    5.7640    0.0000   -2.8129 C   0  0  0  0  0  4           0  0  0
    6.3567    0.0000   -4.2193 C   0  0  0  0  0  4           0  0  0
    7.8830    0.0000   -4.2193 C   0  0  0  0  0  4           0  0  0
    8.4757    0.0000   -5.6258 C   0  0  0  0  0  4           0  0  0
   10.0019    0.0000   -5.6258 C   0  0  0  0  0  4           0  0  0
   10.5947    0.0000   -7.0322 C   0  0  0  0  0  4           0  0  0
   12.1162    0.0000   -7.0310 C   0  0  0  0  0  4           0  0  0
  1  8  1  0     0  0
  2 17  2  0     0  0
  3 18  2  0     0  0
  4 19  2  0     0  0
  5  6  1  0     0  0
  5  9  1  0     0  0
  6 10  2  0     0  0
  7 11  1  0     0  0
  7 17  1  0     0  0
  7 18  1  0     0  0
  8 11  1  0     0  0
  8 13  2  0     0  0
  9 12  2  0     0  0
  9 17  1  0     0  0
 10 12  1  0     0  0
 10 19  1  0     0  0
 11 14  2  0     0  0
 12 18  1  0     0  0
 13 15  1  0     0  0
 14 16  1  0     0  0
 15 16  2  0     0  0
 19 20  1  0     0  0
 20 21  1  0     0  0
 21 22  1  0     0  0
 22 23  1  0     0  0
 23 24  1  0     0  0
 24 25  1  0     0  0
 25 26  1  0     0  0
 26 27  1  0     0  0
 27 28  1  0     0  0
 28 29  1  0     0  0
 29 30  1  0     0  0
 30 31  1  0     0  0
 31 32  1  0     0  0
 32 33  1  0     0  0
 33 34  1  0     0  0
 34 35  1  0     0  0
 35 36  1  0     0  0
M  END
> <standard_type>
IC50

> <# Confs.>
25

> <canonical_smiles>
O=C1C2=C(C(C(CCCCCCCCCCCCCCCCC)=O)=NN2)C(N1C3=CC=CC=C3F)=O

> <standard_relation>
=

> <predicted_activity_value>
6.494850021680094

> <actual_activity_value>
6.346787486224656

> <Compound>
5

> <publication_ID>
nan

> <standard_units>
nM

> hash
14234681689596454840

$$$$
5_
XXILIB    08252103493D 0   0.00000     0.00000

 36 38  0     1  0            999 V2000
  -12.3572    3.8794    2.8978 F   0  0  0  0  0  1           0  0  0
  -10.4069    4.3649    4.1275 O   0  0  0  0  0  2           0  0  0
   -9.9429   -0.3158    4.1579 O   0  0  0  0  0  2           0  0  0
   -6.9585   -1.0666    4.1791 O   0  0  0  0  0  2           0  0  0
   -7.3628    3.3915    4.1878 N   0  0  0  0  0  3           0  0  0
   -6.3899    2.4462    4.2026 N   0  0  0  0  0  3           0  0  0
  -10.6301    1.9815    4.1341 N   0  0  2  0  0  3           0  0  0
  -12.8738    2.7937    3.4935 C   0  0  0  0  0  4           0  0  0
   -8.5933    2.8466    4.1672 C   0  0  0  0  0  4           0  0  0
   -7.0555    1.2699    4.1899 C   0  0  0  0  0  4           0  0  0
  -12.0448    1.8419    4.1086 C   0  0  0  0  0  4           0  0  0
   -8.4357    1.4967    4.1726 C   0  0  0  0  0  4           0  0  0
  -14.2623    2.6514    3.4771 C   0  0  0  0  0  4           0  0  0
  -12.6622    0.7308    4.7089 C   0  0  0  0  0  4           0  0  0
  -14.8531    1.5467    4.0807 C   0  0  0  0  0  4           0  0  0
  -14.0539    0.5870    4.6958 C   0  0  0  0  0  4           0  0  0
   -9.9652    3.2273    4.1413 C   0  0  0  0  0  4           0  0  0
   -9.7354    0.8863    4.1543 C   0  0  0  0  0  4           0  0  0
   -6.3442   -0.0000    4.1907 C   0  0  0  0  0  4           0  0  0
   -4.8306    0.0000    4.2191 C   0  0  0  0  0  4           0  0  0
   -4.2380   -0.0000    2.8129 C   0  0  0  0  0  4           0  0  0
   -2.7117    0.0000    2.8129 C   0  0  0  0  0  4           0  0  0
   -2.1190   -0.0000    1.4064 C   0  0  0  0  0  4           0  0  0
   -0.5927    0.0000    1.4064 C   0  0  0  0  0  4           0  0  0
    0.0000   -0.0000    0.0000 C   0  0  0  0  0  4           0  0  0
    1.5260    0.0000    0.0000 C   0  0  0  0  0  4           0  0  0
    2.1188    0.0000   -1.4064 C   0  0  0  0  0  4           0  0  0
    3.6450    0.0000   -1.4064 C   0  0  0  0  0  4           0  0  0
    4.2378    0.0000   -2.8129 C   0  0  0  0  0  4           0  0  0
    5.7640    0.0000   -2.8129 C   0  0  0  0  0  4           0  0  0
    6.3567    0.0000   -4.2193 C   0  0  0  0  0  4           0  0  0
    7.8830    0.0000   -4.2193 C   0  0  0  0  0  4           0  0  0
    8.4757    0.0000   -5.6258 C   0  0  0  0  0  4           0  0  0
   10.0019    0.0000   -5.6258 C   0  0  0  0  0  4           0  0  0
   10.5947    0.0000   -7.0322 C   0  0  0  0  0  4           0  0  0
   12.1162    0.0000   -7.0310 C   0  0  0  0  0  4           0  0  0
  1  8  1  0     0  0
  2 17  2  0     0  0
  3 18  2  0     0  0
  4 19  2  0     0  0
  5  6  1  0     0  0
  5  9  1  0     0  0
  6 10  2  0     0  0
  7 11  1  0     0  0
  7 17  1  0     0  0
  7 18  1  0     0  0
  8 11  1  0     0  0
  8 13  2  0     0  0
  9 12  2  0     0  0
  9 17  1  0     0  0
 10 12  1  0     0  0
 10 19  1  0     0  0
 11 14  2  0     0  0
 12 18  1  0     0  0
 13 15  1  0     0  0
 14 16  1  0     0  0
 15 16  2  0     0  0
 19 20  1  0     0  0
 20 21  1  0     0  0
 21 22  1  0     0  0
 22 23  1  0     0  0
 23 24  1  0     0  0
 24 25  1  0     0  0
 25 26  1  0     0  0
 26 27  1  0     0  0
 27 28  1  0     0  0
 28 29  1  0     0  0
 29 30  1  0     0  0
 30 31  1  0     0  0
 31 32  1  0     0  0
 32 33  1  0     0  0
 33 34  1  0     0  0
 34 35  1  0     0  0
 35 36  1  0     0  0
M  END
> <standard_type>
IC50

> <# Confs.>
25

> <canonical_smiles>
O=C1C2=C(C(C(CCCCCCCCCCCCCCCCC)=O)=NN2)C(N1C3=CC=CC=C3F)=O

> <standard_relation>
=

> <predicted_activity_value>
6.494850021680094

> <actual_activity_value>
6.346787486224656

> <Compound>
5

> <publication_ID>
nan

> <standard_units>
nM

> hash
14234681689596454840

$$$$
5_
XXILIB    08252103493D 0   0.00000     0.00000

 36 38  0     1  0            999 V2000
   -5.1526    8.4058    5.9058 F   0  0  0  0  0  1           0  0  0
   -6.7241    6.6720    5.6528 O   0  0  0  0  0  2           0  0  0
   -3.1090    3.9650    6.9675 O   0  0  0  0  0  2           0  0  0
   -3.3754    1.1783    5.6892 O   0  0  0  0  0  2           0  0  0
   -6.8098    3.7376    4.3879 N   0  0  0  0  0  3           0  0  0
   -6.3334    2.4813    4.2007 N   0  0  0  0  0  3           0  0  0
   -4.7530    5.6631    6.5624 N   0  0  2  0  0  3           0  0  0
   -4.4496    8.0757    7.0000 C   0  0  0  0  0  4           0  0  0
   -6.0243    4.4557    5.2119 C   0  0  0  0  0  4           0  0  0
   -5.2058    2.4285    4.9440 C   0  0  0  0  0  4           0  0  0
   -4.2394    6.7316    7.3474 C   0  0  0  0  0  4           0  0  0
   -4.9905    3.6547    5.5816 C   0  0  0  0  0  4           0  0  0
   -3.9377    9.1188    7.7735 C   0  0  0  0  0  4           0  0  0
   -3.4945    6.4679    8.5099 C   0  0  0  0  0  4           0  0  0
   -3.1996    8.8358    8.9176 C   0  0  0  0  0  4           0  0  0
   -2.9784    7.5115    9.2858 C   0  0  0  0  0  4           0  0  0
   -5.9387    5.7495    5.8004 C   0  0  0  0  0  4           0  0  0
   -4.1312    4.3969    6.4608 C   0  0  0  0  0  4           0  0  0
   -4.4009    1.2175    5.0097 C   0  0  0  0  0  4           0  0  0
   -4.8306    0.0000    4.2191 C   0  0  0  0  0  4           0  0  0
   -4.2380    0.0000    2.8129 C   0  0  0  0  0  4           0  0  0
   -2.7117    0.0000    2.8129 C   0  0  0  0  0  4           0  0  0
   -2.1190    0.0000    1.4064 C   0  0  0  0  0  4           0  0  0
   -0.5927    0.0000    1.4064 C   0  0  0  0  0  4           0  0  0
    0.0000    0.0000    0.0000 C   0  0  0  0  0  4           0  0  0
    1.5260    0.0000    0.0000 C   0  0  0  0  0  4           0  0  0
    2.1188    0.0000   -1.4064 C   0  0  0  0  0  4           0  0  0
    3.6450    0.0000   -1.4064 C   0  0  0  0  0  4           0  0  0
    4.2378    0.0000   -2.8129 C   0  0  0  0  0  4           0  0  0
    5.7640    0.0000   -2.8129 C   0  0  0  0  0  4           0  0  0
    6.3567    0.0000   -4.2193 C   0  0  0  0  0  4           0  0  0
    7.8830    0.0000   -4.2193 C   0  0  0  0  0  4           0  0  0
    8.4757    0.0000   -5.6258 C   0  0  0  0  0  4           0  0  0
   10.0019    0.0000   -5.6258 C   0  0  0  0  0  4           0  0  0
   10.5947    0.0000   -7.0322 C   0  0  0  0  0  4           0  0  0
   12.1162    0.0000   -7.0310 C   0  0  0  0  0  4           0  0  0
  1  8  1  0     0  0
  2 17  2  0     0  0
  3 18  2  0     0  0
  4 19  2  0     0  0
  5  6  1  0     0  0
  5  9  1  0     0  0
  6 10  2  0     0  0
  7 11  1  0     0  0
  7 17  1  0     0  0
  7 18  1  0     0  0
  8 11  1  0     0  0
  8 13  2  0     0  0
  9 12  2  0     0  0
  9 17  1  0     0  0
 10 12  1  0     0  0
 10 19  1  0     0  0
 11 14  2  0     0  0
 12 18  1  0     0  0
 13 15  1  0     0  0
 14 16  1  0     0  0
 15 16  2  0     0  0
 19 20  1  0     0  0
 20 21  1  0     0  0
 21 22  1  0     0  0
 22 23  1  0     0  0
 23 24  1  0     0  0
 24 25  1  0     0  0
 25 26  1  0     0  0
 26 27  1  0     0  0
 27 28  1  0     0  0
 28 29  1  0     0  0
 29 30  1  0     0  0
 30 31  1  0     0  0
 31 32  1  0     0  0
 32 33  1  0     0  0
 33 34  1  0     0  0
 34 35  1  0     0  0
 35 36  1  0     0  0
M  END
> <standard_type>
IC50

> <# Confs.>
25

> <canonical_smiles>
O=C1C2=C(C(C(CCCCCCCCCCCCCCCCC)=O)=NN2)C(N1C3=CC=CC=C3F)=O

> <standard_relation>
=

> <predicted_activity_value>
6.494850021680094

> <actual_activity_value>
6.346787486224656

> <Compound>
5

> <publication_ID>
nan

> <standard_units>
nM

> hash
14234681689596454840

$$$$
5_
XXILIB    08252103493D 0   0.00000     0.00000

 36 38  0     1  0            999 V2000
   -6.4107    7.6329    7.7812 F   0  0  0  0  0  1           0  0  0
   -6.7241    6.6720    5.6528 O   0  0  0  0  0  2           0  0  0
   -3.1090    3.9650    6.9675 O   0  0  0  0  0  2           0  0  0
   -3.3754    1.1783    5.6892 O   0  0  0  0  0  2           0  0  0
   -6.8098    3.7376    4.3879 N   0  0  0  0  0  3           0  0  0
   -6.3334    2.4813    4.2007 N   0  0  0  0  0  3           0  0  0
   -4.7530    5.6631    6.5624 N   0  0  2  0  0  3           0  0  0
   -5.0791    7.6908    7.9359 C   0  0  0  0  0  4           0  0  0
   -6.0243    4.4557    5.2119 C   0  0  0  0  0  4           0  0  0
   -5.2058    2.4285    4.9440 C   0  0  0  0  0  4           0  0  0
   -4.2394    6.7316    7.3474 C   0  0  0  0  0  4           0  0  0
   -4.9905    3.6547    5.5816 C   0  0  0  0  0  4           0  0  0
   -4.5663    8.7395    8.7011 C   0  0  0  0  0  4           0  0  0
   -2.8556    6.8600    7.5580 C   0  0  0  0  0  4           0  0  0
   -3.1935    8.8506    8.8935 C   0  0  0  0  0  4           0  0  0
   -2.3388    7.9115    8.3228 C   0  0  0  0  0  4           0  0  0
   -5.9387    5.7495    5.8004 C   0  0  0  0  0  4           0  0  0
   -4.1312    4.3969    6.4608 C   0  0  0  0  0  4           0  0  0
   -4.4009    1.2175    5.0097 C   0  0  0  0  0  4           0  0  0
   -4.8306    0.0000    4.2191 C   0  0  0  0  0  4           0  0  0
   -4.2380    0.0000    2.8129 C   0  0  0  0  0  4           0  0  0
   -2.7117    0.0000    2.8129 C   0  0  0  0  0  4           0  0  0
   -2.1190    0.0000    1.4064 C   0  0  0  0  0  4           0  0  0
   -0.5927    0.0000    1.4064 C   0  0  0  0  0  4           0  0  0
    0.0000    0.0000    0.0000 C   0  0  0  0  0  4           0  0  0
    1.5260    0.0000    0.0000 C   0  0  0  0  0  4           0  0  0
    2.1188    0.0000   -1.4064 C   0  0  0  0  0  4           0  0  0
    3.6450    0.0000   -1.4064 C   0  0  0  0  0  4           0  0  0
    4.2378    0.0000   -2.8129 C   0  0  0  0  0  4           0  0  0
    5.7640    0.0000   -2.8129 C   0  0  0  0  0  4           0  0  0
    6.3567    0.0000   -4.2193 C   0  0  0  0  0  4           0  0  0
    7.8830    0.0000   -4.2193 C   0  0  0  0  0  4           0  0  0
    8.4757    0.0000   -5.6258 C   0  0  0  0  0  4           0  0  0
   10.0019    0.0000   -5.6258 C   0  0  0  0  0  4           0  0  0
   10.5947    0.0000   -7.0322 C   0  0  0  0  0  4           0  0  0
   12.1162    0.0000   -7.0310 C   0  0  0  0  0  4           0  0  0
  1  8  1  0     0  0
  2 17  2  0     0  0
  3 18  2  0     0  0
  4 19  2  0     0  0
  5  6  1  0     0  0
  5  9  1  0     0  0
  6 10  2  0     0  0
  7 11  1  0     0  0
  7 17  1  0     0  0
  7 18  1  0     0  0
  8 11  1  0     0  0
  8 13  2  0     0  0
  9 12  2  0     0  0
  9 17  1  0     0  0
 10 12  1  0     0  0
 10 19  1  0     0  0
 11 14  2  0     0  0
 12 18  1  0     0  0
 13 15  1  0     0  0
 14 16  1  0     0  0
 15 16  2  0     0  0
 19 20  1  0     0  0
 20 21  1  0     0  0
 21 22  1  0     0  0
 22 23  1  0     0  0
 23 24  1  0     0  0
 24 25  1  0     0  0
 25 26  1  0     0  0
 26 27  1  0     0  0
 27 28  1  0     0  0
 28 29  1  0     0  0
 29 30  1  0     0  0
 30 31  1  0     0  0
 31 32  1  0     0  0
 32 33  1  0     0  0
 33 34  1  0     0  0
 34 35  1  0     0  0
 35 36  1  0     0  0
M  END
> <standard_type>
IC50

> <# Confs.>
25

> <canonical_smiles>
O=C1C2=C(C(C(CCCCCCCCCCCCCCCCC)=O)=NN2)C(N1C3=CC=CC=C3F)=O

> <standard_relation>
=

> <predicted_activity_value>
6.494850021680094

> <actual_activity_value>
6.346787486224656

> <Compound>
5

> <publication_ID>
nan

> <standard_units>
nM

> hash
14234681689596454840

$$$$
5_
XXILIB    08252103493D 0   0.00000     0.00000

 36 38  0     1  0            999 V2000
   -6.4362   -7.6300    7.7984 F   0  0  0  0  0  1           0  0  0
   -6.7382   -6.6634    5.6736 O   0  0  0  0  0  2           0  0  0
   -3.1462   -3.9425    7.0223 O   0  0  0  0  0  2           0  0  0
   -3.3754   -1.1783    5.6892 O   0  0  0  0  0  2           0  0  0
   -6.8272   -3.7271    4.4135 N   0  0  0  0  0  3           0  0  0
   -6.3470   -2.4731    4.2207 N   0  0  0  0  0  3           0  0  0
   -4.7786   -5.6477    6.6002 N   0  0  2  0  0  3           0  0  0
   -5.1061   -7.6789    7.9679 C   0  0  0  0  0  4           0  0  0
   -6.0443   -4.4436    5.2414 C   0  0  0  0  0  4           0  0  0
   -5.2193   -2.4204    4.9638 C   0  0  0  0  0  4           0  0  0
   -4.2662   -6.7154    7.3868 C   0  0  0  0  0  4           0  0  0
   -5.0131   -3.6410    5.6150 C   0  0  0  0  0  4           0  0  0
   -4.5952   -8.7214    8.7430 C   0  0  0  0  0  4           0  0  0
   -2.8835   -6.8371    7.6091 C   0  0  0  0  0  4           0  0  0
   -3.2243   -8.8208    8.9541 C   0  0  0  0  0  4           0  0  0
   -2.3691   -7.8797    8.3874 C   0  0  0  0  0  4           0  0  0
   -5.9587   -5.7374    5.8298 C   0  0  0  0  0  4           0  0  0
   -4.1604   -4.3793    6.5039 C   0  0  0  0  0  4           0  0  0
   -4.4009   -1.2175    5.0097 C   0  0  0  0  0  4           0  0  0
   -4.8306   -0.0000    4.2191 C   0  0  0  0  0  4           0  0  0
   -4.2380   -0.0000    2.8129 C   0  0  0  0  0  4           0  0  0
   -2.7117   -0.0000    2.8129 C   0  0  0  0  0  4           0  0  0
   -2.1190   -0.0000    1.4064 C   0  0  0  0  0  4           0  0  0
   -0.5927    0.0000    1.4064 C   0  0  0  0  0  4           0  0  0
    0.0000    0.0000    0.0000 C   0  0  0  0  0  4           0  0  0
    1.5260    0.0000    0.0000 C   0  0  0  0  0  4           0  0  0
    2.1188    0.0000   -1.4064 C   0  0  0  0  0  4           0  0  0
    3.6450    0.0000   -1.4064 C   0  0  0  0  0  4           0  0  0
    4.2378    0.0000   -2.8129 C   0  0  0  0  0  4           0  0  0
    5.7640    0.0000   -2.8129 C   0  0  0  0  0  4           0  0  0
    6.3567    0.0000   -4.2193 C   0  0  0  0  0  4           0  0  0
    7.8830    0.0000   -4.2193 C   0  0  0  0  0  4           0  0  0
    8.4757    0.0000   -5.6258 C   0  0  0  0  0  4           0  0  0
   10.0019    0.0000   -5.6258 C   0  0  0  0  0  4           0  0  0
   10.5947    0.0000   -7.0322 C   0  0  0  0  0  4           0  0  0
   12.1162    0.0000   -7.0310 C   0  0  0  0  0  4           0  0  0
  1  8  1  0     0  0
  2 17  2  0     0  0
  3 18  2  0     0  0
  4 19  2  0     0  0
  5  6  1  0     0  0
  5  9  1  0     0  0
  6 10  2  0     0  0
  7 11  1  0     0  0
  7 17  1  0     0  0
  7 18  1  0     0  0
  8 11  1  0     0  0
  8 13  2  0     0  0
  9 12  2  0     0  0
  9 17  1  0     0  0
 10 12  1  0     0  0
 10 19  1  0     0  0
 11 14  2  0     0  0
 12 18  1  0     0  0
 13 15  1  0     0  0
 14 16  1  0     0  0
 15 16  2  0     0  0
 19 20  1  0     0  0
 20 21  1  0     0  0
 21 22  1  0     0  0
 22 23  1  0     0  0
 23 24  1  0     0  0
 24 25  1  0     0  0
 25 26  1  0     0  0
 26 27  1  0     0  0
 27 28  1  0     0  0
 28 29  1  0     0  0
 29 30  1  0     0  0
 30 31  1  0     0  0
 31 32  1  0     0  0
 32 33  1  0     0  0
 33 34  1  0     0  0
 34 35  1  0     0  0
 35 36  1  0     0  0
M  END
> <standard_type>
IC50

> <# Confs.>
25

> <canonical_smiles>
O=C1C2=C(C(C(CCCCCCCCCCCCCCCCC)=O)=NN2)C(N1C3=CC=CC=C3F)=O

> <standard_relation>
=

> <predicted_activity_value>
6.494850021680094

> <actual_activity_value>
6.346787486224656

> <Compound>
5

> <publication_ID>
nan

> <standard_units>
nM

> hash
14234681689596454840

$$$$
5_
XXILIB    08252103493D 0   0.00000     0.00000

 36 38  0     1  0            999 V2000
  -11.9690    1.1568    3.8500 F   0  0  0  0  0  1           0  0  0
  -10.4888   -0.0133    8.4784 O   0  0  0  0  0  2           0  0  0
   -9.9363   -0.0350    3.8072 O   0  0  0  0  0  2           0  0  0
   -6.9384   -0.0000    3.1127 O   0  0  0  0  0  2           0  0  0
   -7.4262   -0.0163    7.5624 N   0  0  0  0  0  3           0  0  0
   -6.4357   -0.0128    6.6355 N   0  0  0  0  0  3           0  0  0
  -10.6669   -0.0241    6.0912 N   0  0  2  0  0  3           0  0  0
  -12.6958    0.5660    4.8107 C   0  0  0  0  0  4           0  0  0
   -8.6465   -0.0188    6.9944 C   0  0  0  0  0  4           0  0  0
   -7.0792   -0.0127    5.4470 C   0  0  0  0  0  4           0  0  0
  -12.0790   -0.0252    5.9250 C   0  0  0  0  0  4           0  0  0
   -8.4634   -0.0213    5.6478 C   0  0  0  0  0  4           0  0  0
  -14.0832    0.5648    4.6575 C   0  0  0  0  0  4           0  0  0
  -12.9094   -0.6261    6.8869 C   0  0  0  0  0  4           0  0  0
  -14.8868   -0.0315    5.6232 C   0  0  0  0  0  4           0  0  0
  -14.3005   -0.6268    6.7368 C   0  0  0  0  0  4           0  0  0
  -10.0256   -0.0188    7.3492 C   0  0  0  0  0  4           0  0  0
   -9.7516   -0.0275    5.0130 C   0  0  0  0  0  4           0  0  0
   -6.3442   -0.0000    4.1907 C   0  0  0  0  0  4           0  0  0
   -4.8306    0.0000    4.2191 C   0  0  0  0  0  4           0  0  0
   -4.2380   -0.0000    2.8129 C   0  0  0  0  0  4           0  0  0
   -2.7117    0.0000    2.8129 C   0  0  0  0  0  4           0  0  0
   -2.1190   -0.0000    1.4064 C   0  0  0  0  0  4           0  0  0
   -0.5927    0.0000    1.4064 C   0  0  0  0  0  4           0  0  0
    0.0000   -0.0000    0.0000 C   0  0  0  0  0  4           0  0  0
    1.5260    0.0000    0.0000 C   0  0  0  0  0  4           0  0  0
    2.1188    0.0000   -1.4064 C   0  0  0  0  0  4           0  0  0
    3.6450    0.0000   -1.4064 C   0  0  0  0  0  4           0  0  0
    4.2378    0.0000   -2.8129 C   0  0  0  0  0  4           0  0  0
    5.7640    0.0000   -2.8129 C   0  0  0  0  0  4           0  0  0
    6.3567    0.0000   -4.2193 C   0  0  0  0  0  4           0  0  0
    7.8830    0.0000   -4.2193 C   0  0  0  0  0  4           0  0  0
    8.4757    0.0000   -5.6258 C   0  0  0  0  0  4           0  0  0
   10.0019    0.0000   -5.6258 C   0  0  0  0  0  4           0  0  0
   10.5947    0.0000   -7.0322 C   0  0  0  0  0  4           0  0  0
   12.1162    0.0000   -7.0310 C   0  0  0  0  0  4           0  0  0
  1  8  1  0     0  0
  2 17  2  0     0  0
  3 18  2  0     0  0
  4 19  2  0     0  0
  5  6  1  0     0  0
  5  9  1  0     0  0
  6 10  2  0     0  0
  7 11  1  0     0  0
  7 17  1  0     0  0
  7 18  1  0     0  0
  8 11  1  0     0  0
  8 13  2  0     0  0
  9 12  2  0     0  0
  9 17  1  0     0  0
 10 12  1  0     0  0
 10 19  1  0     0  0
 11 14  2  0     0  0
 12 18  1  0     0  0
 13 15  1  0     0  0
 14 16  1  0     0  0
 15 16  2  0     0  0
 19 20  1  0     0  0
 20 21  1  0     0  0
 21 22  1  0     0  0
 22 23  1  0     0  0
 23 24  1  0     0  0
 24 25  1  0     0  0
 25 26  1  0     0  0
 26 27  1  0     0  0
 27 28  1  0     0  0
 28 29  1  0     0  0
 29 30  1  0     0  0
 30 31  1  0     0  0
 31 32  1  0     0  0
 32 33  1  0     0  0
 33 34  1  0     0  0
 34 35  1  0     0  0
 35 36  1  0     0  0
M  END
> <standard_type>
IC50

> <# Confs.>
25

> <canonical_smiles>
O=C1C2=C(C(C(CCCCCCCCCCCCCCCCC)=O)=NN2)C(N1C3=CC=CC=C3F)=O

> <standard_relation>
=

> <predicted_activity_value>
6.494850021680094

> <actual_activity_value>
6.346787486224656

> <Compound>
5

> <publication_ID>
nan

> <standard_units>
nM

> hash
14234681689596454840

$$$$
5_
XXILIB    08252103493D 0   0.00000     0.00000

 36 38  0     1  0            999 V2000
  -11.9686   -1.2301    3.8632 F   0  0  0  0  0  1           0  0  0
  -10.4888   -0.0133    8.4784 O   0  0  0  0  0  2           0  0  0
   -9.9363   -0.0350    3.8072 O   0  0  0  0  0  2           0  0  0
   -6.9384   -0.0000    3.1127 O   0  0  0  0  0  2           0  0  0
   -7.4262   -0.0163    7.5624 N   0  0  0  0  0  3           0  0  0
   -6.4357   -0.0128    6.6355 N   0  0  0  0  0  3           0  0  0
  -10.6669   -0.0241    6.0912 N   0  0  2  0  0  3           0  0  0
  -12.6954   -0.6258    4.8156 C   0  0  0  0  0  4           0  0  0
   -8.6465   -0.0188    6.9944 C   0  0  0  0  0  4           0  0  0
   -7.0792   -0.0127    5.4470 C   0  0  0  0  0  4           0  0  0
  -12.0790   -0.0252    5.9250 C   0  0  0  0  0  4           0  0  0
   -8.4634   -0.0213    5.6478 C   0  0  0  0  0  4           0  0  0
  -14.0822   -0.6182    4.6575 C   0  0  0  0  0  4           0  0  0
  -12.9096    0.5855    6.8806 C   0  0  0  0  0  4           0  0  0
  -14.8855   -0.0046    5.6125 C   0  0  0  0  0  4           0  0  0
  -14.2998    0.5964    6.7234 C   0  0  0  0  0  4           0  0  0
  -10.0256   -0.0188    7.3492 C   0  0  0  0  0  4           0  0  0
   -9.7516   -0.0275    5.0130 C   0  0  0  0  0  4           0  0  0
   -6.3442   -0.0000    4.1907 C   0  0  0  0  0  4           0  0  0
   -4.8306    0.0000    4.2191 C   0  0  0  0  0  4           0  0  0
   -4.2380   -0.0000    2.8129 C   0  0  0  0  0  4           0  0  0
   -2.7117    0.0000    2.8129 C   0  0  0  0  0  4           0  0  0
   -2.1190   -0.0000    1.4064 C   0  0  0  0  0  4           0  0  0
   -0.5927    0.0000    1.4064 C   0  0  0  0  0  4           0  0  0
    0.0000   -0.0000    0.0000 C   0  0  0  0  0  4           0  0  0
    1.5260    0.0000    0.0000 C   0  0  0  0  0  4           0  0  0
    2.1188    0.0000   -1.4064 C   0  0  0  0  0  4           0  0  0
    3.6450    0.0000   -1.4064 C   0  0  0  0  0  4           0  0  0
    4.2378    0.0000   -2.8129 C   0  0  0  0  0  4           0  0  0
    5.7640    0.0000   -2.8129 C   0  0  0  0  0  4           0  0  0
    6.3567    0.0000   -4.2193 C   0  0  0  0  0  4           0  0  0
    7.8830    0.0000   -4.2193 C   0  0  0  0  0  4           0  0  0
    8.4757    0.0000   -5.6258 C   0  0  0  0  0  4           0  0  0
   10.0019    0.0000   -5.6258 C   0  0  0  0  0  4           0  0  0
   10.5947    0.0000   -7.0322 C   0  0  0  0  0  4           0  0  0
   12.1162    0.0000   -7.0310 C   0  0  0  0  0  4           0  0  0
  1  8  1  0     0  0
  2 17  2  0     0  0
  3 18  2  0     0  0
  4 19  2  0     0  0
  5  6  1  0     0  0
  5  9  1  0     0  0
  6 10  2  0     0  0
  7 11  1  0     0  0
  7 17  1  0     0  0
  7 18  1  0     0  0
  8 11  1  0     0  0
  8 13  2  0     0  0
  9 12  2  0     0  0
  9 17  1  0     0  0
 10 12  1  0     0  0
 10 19  1  0     0  0
 11 14  2  0     0  0
 12 18  1  0     0  0
 13 15  1  0     0  0
 14 16  1  0     0  0
 15 16  2  0     0  0
 19 20  1  0     0  0
 20 21  1  0     0  0
 21 22  1  0     0  0
 22 23  1  0     0  0
 23 24  1  0     0  0
 24 25  1  0     0  0
 25 26  1  0     0  0
 26 27  1  0     0  0
 27 28  1  0     0  0
 28 29  1  0     0  0
 29 30  1  0     0  0
 30 31  1  0     0  0
 31 32  1  0     0  0
 32 33  1  0     0  0
 33 34  1  0     0  0
 34 35  1  0     0  0
 35 36  1  0     0  0
M  END
> <standard_type>
IC50

> <# Confs.>
25

> <canonical_smiles>
O=C1C2=C(C(C(CCCCCCCCCCCCCCCCC)=O)=NN2)C(N1C3=CC=CC=C3F)=O

> <standard_relation>
=

> <predicted_activity_value>
6.494850021680094

> <actual_activity_value>
6.346787486224656

> <Compound>
5

> <publication_ID>
nan

> <standard_units>
nM

> hash
14234681689596454840

$$$$
5_
XXILIB    08252103493D 0   0.00000     0.00000

 36 38  0     1  0            999 V2000
  -11.9951    0.2348    5.2414 F   0  0  0  0  0  1           0  0  0
  -10.4064   -4.3649    4.1009 O   0  0  0  0  0  2           0  0  0
   -9.9415    0.3158    4.0880 O   0  0  0  0  0  2           0  0  0
   -6.9585    1.0666    4.1791 O   0  0  0  0  0  2           0  0  0
   -7.3621   -3.3915    4.1552 N   0  0  0  0  0  3           0  0  0
   -6.3895   -2.4462    4.1770 N   0  0  0  0  0  3           0  0  0
  -10.6292   -1.9815    4.0860 N   0  0  2  0  0  3           0  0  0
  -12.6925   -0.7394    4.6373 C   0  0  0  0  0  4           0  0  0
   -8.5926   -2.8466    4.1295 C   0  0  0  0  0  4           0  0  0
   -7.0551   -1.2699    4.1646 C   0  0  0  0  0  4           0  0  0
  -12.0439   -1.8419    4.0582 C   0  0  0  0  0  4           0  0  0
   -8.4349   -1.4967    4.1300 C   0  0  0  0  0  4           0  0  0
  -14.0823   -0.6124    4.6100 C   0  0  0  0  0  4           0  0  0
  -12.8446   -2.8192    3.4421 C   0  0  0  0  0  4           0  0  0
  -14.8562   -1.5930    3.9990 C   0  0  0  0  0  4           0  0  0
  -14.2380   -2.6954    3.4152 C   0  0  0  0  0  4           0  0  0
   -9.9645   -3.2273    4.1038 C   0  0  0  0  0  4           0  0  0
   -9.7344   -0.8863    4.0994 C   0  0  0  0  0  4           0  0  0
   -6.3442   -0.0000    4.1907 C   0  0  0  0  0  4           0  0  0
   -4.8306    0.0000    4.2191 C   0  0  0  0  0  4           0  0  0
   -4.2380   -0.0000    2.8129 C   0  0  0  0  0  4           0  0  0
   -2.7117    0.0000    2.8129 C   0  0  0  0  0  4           0  0  0
   -2.1190   -0.0000    1.4064 C   0  0  0  0  0  4           0  0  0
   -0.5927    0.0000    1.4064 C   0  0  0  0  0  4           0  0  0
    0.0000   -0.0000    0.0000 C   0  0  0  0  0  4           0  0  0
    1.5260    0.0000    0.0000 C   0  0  0  0  0  4           0  0  0
    2.1188    0.0000   -1.4064 C   0  0  0  0  0  4           0  0  0
    3.6450    0.0000   -1.4064 C   0  0  0  0  0  4           0  0  0
    4.2378    0.0000   -2.8129 C   0  0  0  0  0  4           0  0  0
    5.7640    0.0000   -2.8129 C   0  0  0  0  0  4           0  0  0
    6.3567    0.0000   -4.2193 C   0  0  0  0  0  4           0  0  0
    7.8830    0.0000   -4.2193 C   0  0  0  0  0  4           0  0  0
    8.4757    0.0000   -5.6258 C   0  0  0  0  0  4           0  0  0
   10.0019    0.0000   -5.6258 C   0  0  0  0  0  4           0  0  0
   10.5947    0.0000   -7.0322 C   0  0  0  0  0  4           0  0  0
   12.1162    0.0000   -7.0310 C   0  0  0  0  0  4           0  0  0
  1  8  1  0     0  0
  2 17  2  0     0  0
  3 18  2  0     0  0
  4 19  2  0     0  0
  5  6  1  0     0  0
  5  9  1  0     0  0
  6 10  2  0     0  0
  7 11  1  0     0  0
  7 17  1  0     0  0
  7 18  1  0     0  0
  8 11  1  0     0  0
  8 13  2  0     0  0
  9 12  2  0     0  0
  9 17  1  0     0  0
 10 12  1  0     0  0
 10 19  1  0     0  0
 11 14  2  0     0  0
 12 18  1  0     0  0
 13 15  1  0     0  0
 14 16  1  0     0  0
 15 16  2  0     0  0
 19 20  1  0     0  0
 20 21  1  0     0  0
 21 22  1  0     0  0
 22 23  1  0     0  0
 23 24  1  0     0  0
 24 25  1  0     0  0
 25 26  1  0     0  0
 26 27  1  0     0  0
 27 28  1  0     0  0
 28 29  1  0     0  0
 29 30  1  0     0  0
 30 31  1  0     0  0
 31 32  1  0     0  0
 32 33  1  0     0  0
 33 34  1  0     0  0
 34 35  1  0     0  0
 35 36  1  0     0  0
M  END
> <standard_type>
IC50

> <# Confs.>
25

> <canonical_smiles>
O=C1C2=C(C(C(CCCCCCCCCCCCCCCCC)=O)=NN2)C(N1C3=CC=CC=C3F)=O

> <standard_relation>
=

> <predicted_activity_value>
6.494850021680094

> <actual_activity_value>
6.346787486224656

> <Compound>
5

> <publication_ID>
nan

> <standard_units>
nM

> hash
14234681689596454840

$$$$
5_
XXILIB    08252103493D 0   0.00000     0.00000

 36 38  0     1  0            999 V2000
  -11.9497    0.2216    2.8549 F   0  0  0  0  0  1           0  0  0
  -10.4064   -4.3649    4.1009 O   0  0  0  0  0  2           0  0  0
   -9.9415    0.3158    4.0880 O   0  0  0  0  0  2           0  0  0
   -6.9585    1.0666    4.1791 O   0  0  0  0  0  2           0  0  0
   -7.3621   -3.3915    4.1552 N   0  0  0  0  0  3           0  0  0
   -6.3895   -2.4462    4.1770 N   0  0  0  0  0  3           0  0  0
  -10.6292   -1.9815    4.0860 N   0  0  2  0  0  3           0  0  0
  -12.6696   -0.7443    3.4458 C   0  0  0  0  0  4           0  0  0
   -8.5926   -2.8466    4.1295 C   0  0  0  0  0  4           0  0  0
   -7.0551   -1.2699    4.1646 C   0  0  0  0  0  4           0  0  0
  -12.0439   -1.8419    4.0582 C   0  0  0  0  0  4           0  0  0
   -8.4349   -1.4967    4.1300 C   0  0  0  0  0  4           0  0  0
  -14.0591   -0.6123    3.4272 C   0  0  0  0  0  4           0  0  0
  -12.8677   -2.8129    4.6535 C   0  0  0  0  0  4           0  0  0
  -14.8557   -1.5823    4.0259 C   0  0  0  0  0  4           0  0  0
  -14.2606   -2.6819    4.6382 C   0  0  0  0  0  4           0  0  0
   -9.9645   -3.2273    4.1038 C   0  0  0  0  0  4           0  0  0
   -9.7344   -0.8863    4.0994 C   0  0  0  0  0  4           0  0  0
   -6.3442   -0.0000    4.1907 C   0  0  0  0  0  4           0  0  0
   -4.8306    0.0000    4.2191 C   0  0  0  0  0  4           0  0  0
   -4.2380   -0.0000    2.8129 C   0  0  0  0  0  4           0  0  0
   -2.7117    0.0000    2.8129 C   0  0  0  0  0  4           0  0  0
   -2.1190   -0.0000    1.4064 C   0  0  0  0  0  4           0  0  0
   -0.5927    0.0000    1.4064 C   0  0  0  0  0  4           0  0  0
    0.0000   -0.0000    0.0000 C   0  0  0  0  0  4           0  0  0
    1.5260    0.0000    0.0000 C   0  0  0  0  0  4           0  0  0
    2.1188    0.0000   -1.4064 C   0  0  0  0  0  4           0  0  0
    3.6450    0.0000   -1.4064 C   0  0  0  0  0  4           0  0  0
    4.2378    0.0000   -2.8129 C   0  0  0  0  0  4           0  0  0
    5.7640    0.0000   -2.8129 C   0  0  0  0  0  4           0  0  0
    6.3567    0.0000   -4.2193 C   0  0  0  0  0  4           0  0  0
    7.8830    0.0000   -4.2193 C   0  0  0  0  0  4           0  0  0
    8.4757    0.0000   -5.6258 C   0  0  0  0  0  4           0  0  0
   10.0019    0.0000   -5.6258 C   0  0  0  0  0  4           0  0  0
   10.5947    0.0000   -7.0322 C   0  0  0  0  0  4           0  0  0
   12.1162    0.0000   -7.0310 C   0  0  0  0  0  4           0  0  0
  1  8  1  0     0  0
  2 17  2  0     0  0
  3 18  2  0     0  0
  4 19  2  0     0  0
  5  6  1  0     0  0
  5  9  1  0     0  0
  6 10  2  0     0  0
  7 11  1  0     0  0
  7 17  1  0     0  0
  7 18  1  0     0  0
  8 11  1  0     0  0
  8 13  2  0     0  0
  9 12  2  0     0  0
  9 17  1  0     0  0
 10 12  1  0     0  0
 10 19  1  0     0  0
 11 14  2  0     0  0
 12 18  1  0     0  0
 13 15  1  0     0  0
 14 16  1  0     0  0
 15 16  2  0     0  0
 19 20  1  0     0  0
 20 21  1  0     0  0
 21 22  1  0     0  0
 22 23  1  0     0  0
 23 24  1  0     0  0
 24 25  1  0     0  0
 25 26  1  0     0  0
 26 27  1  0     0  0
 27 28  1  0     0  0
 28 29  1  0     0  0
 29 30  1  0     0  0
 30 31  1  0     0  0
 31 32  1  0     0  0
 32 33  1  0     0  0
 33 34  1  0     0  0
 34 35  1  0     0  0
 35 36  1  0     0  0
M  END
> <standard_type>
IC50

> <# Confs.>
25

> <canonical_smiles>
O=C1C2=C(C(C(CCCCCCCCCCCCCCCCC)=O)=NN2)C(N1C3=CC=CC=C3F)=O

> <standard_relation>
=

> <predicted_activity_value>
6.494850021680094

> <actual_activity_value>
6.346787486224656

> <Compound>
5

> <publication_ID>
nan

> <standard_units>
nM

> hash
14234681689596454840

$$$$
5_
XXILIB    08252103493D 0   0.00000     0.00000

 36 38  0     1  0            999 V2000
  -11.9516   -0.2348    2.9281 F   0  0  0  0  0  1           0  0  0
  -10.4069    4.3649    4.1275 O   0  0  0  0  0  2           0  0  0
   -9.9429   -0.3158    4.1579 O   0  0  0  0  0  2           0  0  0
   -6.9585   -1.0666    4.1791 O   0  0  0  0  0  2           0  0  0
   -7.3628    3.3915    4.1878 N   0  0  0  0  0  3           0  0  0
   -6.3899    2.4462    4.2026 N   0  0  0  0  0  3           0  0  0
  -10.6301    1.9815    4.1341 N   0  0  2  0  0  3           0  0  0
  -12.6712    0.7394    3.5055 C   0  0  0  0  0  4           0  0  0
   -8.5933    2.8466    4.1672 C   0  0  0  0  0  4           0  0  0
   -7.0555    1.2699    4.1899 C   0  0  0  0  0  4           0  0  0
  -12.0448    1.8419    4.1086 C   0  0  0  0  0  4           0  0  0
   -8.4357    1.4967    4.1726 C   0  0  0  0  0  4           0  0  0
  -14.0610    0.6124    3.4806 C   0  0  0  0  0  4           0  0  0
  -12.8681    2.8192    4.6942 C   0  0  0  0  0  4           0  0  0
  -14.8574    1.5930    4.0620 C   0  0  0  0  0  4           0  0  0
  -14.2615    2.6954    4.6686 C   0  0  0  0  0  4           0  0  0
   -9.9652    3.2273    4.1413 C   0  0  0  0  0  4           0  0  0
   -9.7354    0.8863    4.1543 C   0  0  0  0  0  4           0  0  0
   -6.3442   -0.0000    4.1907 C   0  0  0  0  0  4           0  0  0
   -4.8306    0.0000    4.2191 C   0  0  0  0  0  4           0  0  0
   -4.2380   -0.0000    2.8129 C   0  0  0  0  0  4           0  0  0
   -2.7117    0.0000    2.8129 C   0  0  0  0  0  4           0  0  0
   -2.1190   -0.0000    1.4064 C   0  0  0  0  0  4           0  0  0
   -0.5927    0.0000    1.4064 C   0  0  0  0  0  4           0  0  0
    0.0000   -0.0000    0.0000 C   0  0  0  0  0  4           0  0  0
    1.5260    0.0000    0.0000 C   0  0  0  0  0  4           0  0  0
    2.1188    0.0000   -1.4064 C   0  0  0  0  0  4           0  0  0
    3.6450    0.0000   -1.4064 C   0  0  0  0  0  4           0  0  0
    4.2378    0.0000   -2.8129 C   0  0  0  0  0  4           0  0  0
    5.7640    0.0000   -2.8129 C   0  0  0  0  0  4           0  0  0
    6.3567    0.0000   -4.2193 C   0  0  0  0  0  4           0  0  0
    7.8830    0.0000   -4.2193 C   0  0  0  0  0  4           0  0  0
    8.4757    0.0000   -5.6258 C   0  0  0  0  0  4           0  0  0
   10.0019    0.0000   -5.6258 C   0  0  0  0  0  4           0  0  0
   10.5947    0.0000   -7.0322 C   0  0  0  0  0  4           0  0  0
   12.1162    0.0000   -7.0310 C   0  0  0  0  0  4           0  0  0
  1  8  1  0     0  0
  2 17  2  0     0  0
  3 18  2  0     0  0
  4 19  2  0     0  0
  5  6  1  0     0  0
  5  9  1  0     0  0
  6 10  2  0     0  0
  7 11  1  0     0  0
  7 17  1  0     0  0
  7 18  1  0     0  0
  8 11  1  0     0  0
  8 13  2  0     0  0
  9 12  2  0     0  0
  9 17  1  0     0  0
 10 12  1  0     0  0
 10 19  1  0     0  0
 11 14  2  0     0  0
 12 18  1  0     0  0
 13 15  1  0     0  0
 14 16  1  0     0  0
 15 16  2  0     0  0
 19 20  1  0     0  0
 20 21  1  0     0  0
 21 22  1  0     0  0
 22 23  1  0     0  0
 23 24  1  0     0  0
 24 25  1  0     0  0
 25 26  1  0     0  0
 26 27  1  0     0  0
 27 28  1  0     0  0
 28 29  1  0     0  0
 29 30  1  0     0  0
 30 31  1  0     0  0
 31 32  1  0     0  0
 32 33  1  0     0  0
 33 34  1  0     0  0
 34 35  1  0     0  0
 35 36  1  0     0  0
M  END
> <standard_type>
IC50

> <# Confs.>
25

> <canonical_smiles>
O=C1C2=C(C(C(CCCCCCCCCCCCCCCCC)=O)=NN2)C(N1C3=CC=CC=C3F)=O

> <standard_relation>
=

> <predicted_activity_value>
6.494850021680094

> <actual_activity_value>
6.346787486224656

> <Compound>
5

> <publication_ID>
nan

> <standard_units>
nM

> hash
14234681689596454840

$$$$
5_
XXILIB    08252103493D 0   0.00000     0.00000

 36 38  0     1  0            999 V2000
  -11.9960   -0.2216    5.3146 F   0  0  0  0  0  1           0  0  0
  -10.4069    4.3649    4.1275 O   0  0  0  0  0  2           0  0  0
   -9.9429   -0.3158    4.1579 O   0  0  0  0  0  2           0  0  0
   -6.9585   -1.0666    4.1791 O   0  0  0  0  0  2           0  0  0
   -7.3628    3.3915    4.1878 N   0  0  0  0  0  3           0  0  0
   -6.3899    2.4462    4.2026 N   0  0  0  0  0  3           0  0  0
  -10.6301    1.9815    4.1341 N   0  0  2  0  0  3           0  0  0
  -12.6932    0.7443    4.6971 C   0  0  0  0  0  4           0  0  0
   -8.5933    2.8466    4.1672 C   0  0  0  0  0  4           0  0  0
   -7.0555    1.2699    4.1899 C   0  0  0  0  0  4           0  0  0
  -12.0448    1.8419    4.1086 C   0  0  0  0  0  4           0  0  0
   -8.4357    1.4967    4.1726 C   0  0  0  0  0  4           0  0  0
  -14.0824    0.6123    4.6634 C   0  0  0  0  0  4           0  0  0
  -12.8457    2.8129    3.4828 C   0  0  0  0  0  4           0  0  0
  -14.8558    1.5823    4.0351 C   0  0  0  0  0  4           0  0  0
  -14.2382    2.6819    3.4456 C   0  0  0  0  0  4           0  0  0
   -9.9652    3.2273    4.1413 C   0  0  0  0  0  4           0  0  0
   -9.7354    0.8863    4.1543 C   0  0  0  0  0  4           0  0  0
   -6.3442   -0.0000    4.1907 C   0  0  0  0  0  4           0  0  0
   -4.8306    0.0000    4.2191 C   0  0  0  0  0  4           0  0  0
   -4.2380   -0.0000    2.8129 C   0  0  0  0  0  4           0  0  0
   -2.7117    0.0000    2.8129 C   0  0  0  0  0  4           0  0  0
   -2.1190   -0.0000    1.4064 C   0  0  0  0  0  4           0  0  0
   -0.5927    0.0000    1.4064 C   0  0  0  0  0  4           0  0  0
    0.0000   -0.0000    0.0000 C   0  0  0  0  0  4           0  0  0
    1.5260    0.0000    0.0000 C   0  0  0  0  0  4           0  0  0
    2.1188    0.0000   -1.4064 C   0  0  0  0  0  4           0  0  0
    3.6450    0.0000   -1.4064 C   0  0  0  0  0  4           0  0  0
    4.2378    0.0000   -2.8129 C   0  0  0  0  0  4           0  0  0
    5.7640    0.0000   -2.8129 C   0  0  0  0  0  4           0  0  0
    6.3567    0.0000   -4.2193 C   0  0  0  0  0  4           0  0  0
    7.8830    0.0000   -4.2193 C   0  0  0  0  0  4           0  0  0
    8.4757    0.0000   -5.6258 C   0  0  0  0  0  4           0  0  0
   10.0019    0.0000   -5.6258 C   0  0  0  0  0  4           0  0  0
   10.5947    0.0000   -7.0322 C   0  0  0  0  0  4           0  0  0
   12.1162    0.0000   -7.0310 C   0  0  0  0  0  4           0  0  0
  1  8  1  0     0  0
  2 17  2  0     0  0
  3 18  2  0     0  0
  4 19  2  0     0  0
  5  6  1  0     0  0
  5  9  1  0     0  0
  6 10  2  0     0  0
  7 11  1  0     0  0
  7 17  1  0     0  0
  7 18  1  0     0  0
  8 11  1  0     0  0
  8 13  2  0     0  0
  9 12  2  0     0  0
  9 17  1  0     0  0
 10 12  1  0     0  0
 10 19  1  0     0  0
 11 14  2  0     0  0
 12 18  1  0     0  0
 13 15  1  0     0  0
 14 16  1  0     0  0
 15 16  2  0     0  0
 19 20  1  0     0  0
 20 21  1  0     0  0
 21 22  1  0     0  0
 22 23  1  0     0  0
 23 24  1  0     0  0
 24 25  1  0     0  0
 25 26  1  0     0  0
 26 27  1  0     0  0
 27 28  1  0     0  0
 28 29  1  0     0  0
 29 30  1  0     0  0
 30 31  1  0     0  0
 31 32  1  0     0  0
 32 33  1  0     0  0
 33 34  1  0     0  0
 34 35  1  0     0  0
 35 36  1  0     0  0
M  END
> <standard_type>
IC50

> <# Confs.>
25

> <canonical_smiles>
O=C1C2=C(C(C(CCCCCCCCCCCCCCCCC)=O)=NN2)C(N1C3=CC=CC=C3F)=O

> <standard_relation>
=

> <predicted_activity_value>
6.494850021680094

> <actual_activity_value>
6.346787486224656

> <Compound>
5

> <publication_ID>
nan

> <standard_units>
nM

> hash
14234681689596454840

$$$$
5_
XXILIB    08252103493D 0   0.00000     0.00000

 36 38  0     1  0            999 V2000
   -1.8325    7.8608   12.4445 F   0  0  0  0  0  1           0  0  0
   -1.6905    5.5256   12.1863 O   0  0  0  0  0  2           0  0  0
    0.6485    6.6666    8.2681 O   0  0  0  0  0  2           0  0  0
    0.2285    4.4903    6.1332 O   0  0  0  0  0  2           0  0  0
   -2.0396    3.3912    9.8326 N   0  0  0  0  0  3           0  0  0
   -1.8104    2.9107    8.5848 N   0  0  0  0  0  3           0  0  0
   -0.3689    6.4761   10.4313 N   0  0  2  0  0  3           0  0  0
   -0.6368    8.3238   12.0493 C   0  0  0  0  0  4           0  0  0
   -1.4027    4.5573   10.0473 C   0  0  0  0  0  4           0  0  0
   -0.9961    3.8239    8.0106 C   0  0  0  0  0  4           0  0  0
    0.1061    7.6595   11.0603 C   0  0  0  0  0  4           0  0  0
   -0.7318    4.8654    8.9062 C   0  0  0  0  0  4           0  0  0
   -0.1653    9.4879   12.6585 C   0  0  0  0  0  4           0  0  0
    1.3508    8.2062   10.7029 C   0  0  0  0  0  4           0  0  0
    1.0669   10.0145   12.2870 C   0  0  0  0  0  4           0  0  0
    1.8246    9.3741   11.3104 C   0  0  0  0  0  4           0  0  0
   -1.2156    5.5385   11.0621 C   0  0  0  0  0  4           0  0  0
   -0.0434    6.1099    9.1045 C   0  0  0  0  0  4           0  0  0
   -0.5128    3.6536    6.6483 C   0  0  0  0  0  4           0  0  0
   -0.9425    2.4360    5.8578 C   0  0  0  0  0  4           0  0  0
   -0.3498    2.4360    4.4515 C   0  0  0  0  0  4           0  0  0
   -0.7676    1.2180    3.6322 C   0  0  0  0  0  4           0  0  0
   -0.1749    1.2180    2.2258 C   0  0  0  0  0  4           0  0  0
   -0.5927    0.0000    1.4064 C   0  0  0  0  0  4           0  0  0
    0.0000    0.0000    0.0000 C   0  0  0  0  0  4           0  0  0
    1.5260    0.0000    0.0000 C   0  0  0  0  0  4           0  0  0
    2.1188    0.0000   -1.4064 C   0  0  0  0  0  4           0  0  0
    3.6450    0.0000   -1.4064 C   0  0  0  0  0  4           0  0  0
    4.2378    0.0000   -2.8129 C   0  0  0  0  0  4           0  0  0
    5.7640    0.0000   -2.8129 C   0  0  0  0  0  4           0  0  0
    6.3567    0.0000   -4.2193 C   0  0  0  0  0  4           0  0  0
    7.8830    0.0000   -4.2193 C   0  0  0  0  0  4           0  0  0
    8.4757    0.0000   -5.6258 C   0  0  0  0  0  4           0  0  0
   10.0019    0.0000   -5.6258 C   0  0  0  0  0  4           0  0  0
   10.5947    0.0000   -7.0322 C   0  0  0  0  0  4           0  0  0
   12.1162    0.0000   -7.0310 C   0  0  0  0  0  4           0  0  0
  1  8  1  0     0  0
  2 17  2  0     0  0
  3 18  2  0     0  0
  4 19  2  0     0  0
  5  6  1  0     0  0
  5  9  1  0     0  0
  6 10  2  0     0  0
  7 11  1  0     0  0
  7 17  1  0     0  0
  7 18  1  0     0  0
  8 11  1  0     0  0
  8 13  2  0     0  0
  9 12  2  0     0  0
  9 17  1  0     0  0
 10 12  1  0     0  0
 10 19  1  0     0  0
 11 14  2  0     0  0
 12 18  1  0     0  0
 13 15  1  0     0  0
 14 16  1  0     0  0
 15 16  2  0     0  0
 19 20  1  0     0  0
 20 21  1  0     0  0
 21 22  1  0     0  0
 22 23  1  0     0  0
 23 24  1  0     0  0
 24 25  1  0     0  0
 25 26  1  0     0  0
 26 27  1  0     0  0
 27 28  1  0     0  0
 28 29  1  0     0  0
 29 30  1  0     0  0
 30 31  1  0     0  0
 31 32  1  0     0  0
 32 33  1  0     0  0
 33 34  1  0     0  0
 34 35  1  0     0  0
 35 36  1  0     0  0
M  END
> <standard_type>
IC50

> <# Confs.>
25

> <canonical_smiles>
O=C1C2=C(C(C(CCCCCCCCCCCCCCCCC)=O)=NN2)C(N1C3=CC=CC=C3F)=O

> <standard_relation>
=

> <predicted_activity_value>
6.494850021680094

> <actual_activity_value>
6.346787486224656

> <Compound>
5

> <publication_ID>
nan

> <standard_units>
nM

> hash
14234681689596454840

$$$$
5_
XXILIB    08252103493D 0   0.00000     0.00000

 36 38  0     1  0            999 V2000
  -12.4521   -1.2074    7.9690 F   0  0  0  0  0  1           0  0  0
  -10.4888   -0.0133    8.4784 O   0  0  0  0  0  2           0  0  0
   -9.9363   -0.0350    3.8072 O   0  0  0  0  0  2           0  0  0
   -6.9384   -0.0000    3.1127 O   0  0  0  0  0  2           0  0  0
   -7.4262   -0.0163    7.5624 N   0  0  0  0  0  3           0  0  0
   -6.4357   -0.0128    6.6355 N   0  0  0  0  0  3           0  0  0
  -10.6669   -0.0241    6.0912 N   0  0  2  0  0  3           0  0  0
  -12.9368   -0.6175    6.8656 C   0  0  0  0  0  4           0  0  0
   -8.6465   -0.0188    6.9944 C   0  0  0  0  0  4           0  0  0
   -7.0792   -0.0127    5.4470 C   0  0  0  0  0  4           0  0  0
  -12.0790   -0.0252    5.9250 C   0  0  0  0  0  4           0  0  0
   -8.4634   -0.0213    5.6478 C   0  0  0  0  0  4           0  0  0
  -14.3218   -0.6185    6.6924 C   0  0  0  0  0  4           0  0  0
  -12.6642    0.5746    4.7964 C   0  0  0  0  0  4           0  0  0
  -14.8801   -0.0233    5.5663 C   0  0  0  0  0  4           0  0  0
  -14.0521    0.5731    4.6192 C   0  0  0  0  0  4           0  0  0
  -10.0256   -0.0188    7.3492 C   0  0  0  0  0  4           0  0  0
   -9.7516   -0.0275    5.0130 C   0  0  0  0  0  4           0  0  0
   -6.3442   -0.0000    4.1907 C   0  0  0  0  0  4           0  0  0
   -4.8306    0.0000    4.2191 C   0  0  0  0  0  4           0  0  0
   -4.2380   -0.0000    2.8129 C   0  0  0  0  0  4           0  0  0
   -2.7117    0.0000    2.8129 C   0  0  0  0  0  4           0  0  0
   -2.1190   -0.0000    1.4064 C   0  0  0  0  0  4           0  0  0
   -0.5927    0.0000    1.4064 C   0  0  0  0  0  4           0  0  0
    0.0000   -0.0000    0.0000 C   0  0  0  0  0  4           0  0  0
    1.5260   -0.0000    0.0000 C   0  0  0  0  0  4           0  0  0
    2.1188    0.0000   -1.4064 C   0  0  0  0  0  4           0  0  0
    3.6450    0.0000   -1.4064 C   0  0  0  0  0  4           0  0  0
    4.2378   -1.2180   -0.7032 C   0  0  0  0  0  4           0  0  0
    5.7640   -1.2180   -0.7032 C   0  0  0  0  0  4           0  0  0
    6.3567   -2.4360    0.0000 C   0  0  0  0  0  4           0  0  0
    7.8830   -2.4360    0.0000 C   0  0  0  0  0  4           0  0  0
    8.4757   -3.6540    0.7032 C   0  0  0  0  0  4           0  0  0
   10.0019   -3.6540    0.7032 C   0  0  0  0  0  4           0  0  0
   10.5947   -4.8721    1.4064 C   0  0  0  0  0  4           0  0  0
   12.1162   -4.8710    1.4058 C   0  0  0  0  0  4           0  0  0
  1  8  1  0     0  0
  2 17  2  0     0  0
  3 18  2  0     0  0
  4 19  2  0     0  0
  5  6  1  0     0  0
  5  9  1  0     0  0
  6 10  2  0     0  0
  7 11  1  0     0  0
  7 17  1  0     0  0
  7 18  1  0     0  0
  8 11  1  0     0  0
  8 13  2  0     0  0
  9 12  2  0     0  0
  9 17  1  0     0  0
 10 12  1  0     0  0
 10 19  1  0     0  0
 11 14  2  0     0  0
 12 18  1  0     0  0
 13 15  1  0     0  0
 14 16  1  0     0  0
 15 16  2  0     0  0
 19 20  1  0     0  0
 20 21  1  0     0  0
 21 22  1  0     0  0
 22 23  1  0     0  0
 23 24  1  0     0  0
 24 25  1  0     0  0
 25 26  1  0     0  0
 26 27  1  0     0  0
 27 28  1  0     0  0
 28 29  1  0     0  0
 29 30  1  0     0  0
 30 31  1  0     0  0
 31 32  1  0     0  0
 32 33  1  0     0  0
 33 34  1  0     0  0
 34 35  1  0     0  0
 35 36  1  0     0  0
M  END
> <standard_type>
IC50

> <# Confs.>
25

> <canonical_smiles>
O=C1C2=C(C(C(CCCCCCCCCCCCCCCCC)=O)=NN2)C(N1C3=CC=CC=C3F)=O

> <standard_relation>
=

> <predicted_activity_value>
6.494850021680094

> <actual_activity_value>
6.346787486224656

> <Compound>
5

> <publication_ID>
nan

> <standard_units>
nM

> hash
14234681689596454840

$$$$
5_
XXILIB    08252103493D 0   0.00000     0.00000

 36 38  0     1  0            999 V2000
    0.0795    6.6721   13.2373 F   0  0  0  0  0  1           0  0  0
   -1.6905    5.5256   12.1863 O   0  0  0  0  0  2           0  0  0
    0.6485    6.6666    8.2681 O   0  0  0  0  0  2           0  0  0
    0.2285    4.4903    6.1332 O   0  0  0  0  0  2           0  0  0
   -2.0396    3.3912    9.8326 N   0  0  0  0  0  3           0  0  0
   -1.8104    2.9107    8.5848 N   0  0  0  0  0  3           0  0  0
   -0.3689    6.4761   10.4313 N   0  0  2  0  0  3           0  0  0
    0.3170    7.7299   12.4466 C   0  0  0  0  0  4           0  0  0
   -1.4027    4.5573   10.0473 C   0  0  0  0  0  4           0  0  0
   -0.9961    3.8239    8.0106 C   0  0  0  0  0  4           0  0  0
    0.1061    7.6595   11.0603 C   0  0  0  0  0  4           0  0  0
   -0.7318    4.8654    8.9062 C   0  0  0  0  0  4           0  0  0
    0.7789    8.8971   13.0569 C   0  0  0  0  0  4           0  0  0
    0.3804    8.8097   10.3002 C   0  0  0  0  0  4           0  0  0
    1.0401   10.0253   12.2870 C   0  0  0  0  0  4           0  0  0
    0.8414    9.9816   10.9097 C   0  0  0  0  0  4           0  0  0
   -1.2156    5.5385   11.0621 C   0  0  0  0  0  4           0  0  0
   -0.0434    6.1099    9.1045 C   0  0  0  0  0  4           0  0  0
   -0.5128    3.6536    6.6483 C   0  0  0  0  0  4           0  0  0
   -0.9425    2.4360    5.8578 C   0  0  0  0  0  4           0  0  0
   -0.3498    2.4360    4.4515 C   0  0  0  0  0  4           0  0  0
   -0.7676    1.2180    3.6322 C   0  0  0  0  0  4           0  0  0
   -0.1749    1.2180    2.2258 C   0  0  0  0  0  4           0  0  0
   -0.5927    0.0000    1.4064 C   0  0  0  0  0  4           0  0  0
    0.0000    0.0000    0.0000 C   0  0  0  0  0  4           0  0  0
    1.5260    0.0000    0.0000 C   0  0  0  0  0  4           0  0  0
    2.1188    0.0000   -1.4064 C   0  0  0  0  0  4           0  0  0
    3.6450    0.0000   -1.4064 C   0  0  0  0  0  4           0  0  0
    4.2378    0.0000   -2.8129 C   0  0  0  0  0  4           0  0  0
    5.7640    0.0000   -2.8129 C   0  0  0  0  0  4           0  0  0
    6.3567    0.0000   -4.2193 C   0  0  0  0  0  4           0  0  0
    7.8830    0.0000   -4.2193 C   0  0  0  0  0  4           0  0  0
    8.4757    0.0000   -5.6258 C   0  0  0  0  0  4           0  0  0
   10.0019    0.0000   -5.6258 C   0  0  0  0  0  4           0  0  0
   10.5947    0.0000   -7.0322 C   0  0  0  0  0  4           0  0  0
   12.1162    0.0000   -7.0310 C   0  0  0  0  0  4           0  0  0
  1  8  1  0     0  0
  2 17  2  0     0  0
  3 18  2  0     0  0
  4 19  2  0     0  0
  5  6  1  0     0  0
  5  9  1  0     0  0
  6 10  2  0     0  0
  7 11  1  0     0  0
  7 17  1  0     0  0
  7 18  1  0     0  0
  8 11  1  0     0  0
  8 13  2  0     0  0
  9 12  2  0     0  0
  9 17  1  0     0  0
 10 12  1  0     0  0
 10 19  1  0     0  0
 11 14  2  0     0  0
 12 18  1  0     0  0
 13 15  1  0     0  0
 14 16  1  0     0  0
 15 16  2  0     0  0
 19 20  1  0     0  0
 20 21  1  0     0  0
 21 22  1  0     0  0
 22 23  1  0     0  0
 23 24  1  0     0  0
 24 25  1  0     0  0
 25 26  1  0     0  0
 26 27  1  0     0  0
 27 28  1  0     0  0
 28 29  1  0     0  0
 29 30  1  0     0  0
 30 31  1  0     0  0
 31 32  1  0     0  0
 32 33  1  0     0  0
 33 34  1  0     0  0
 34 35  1  0     0  0
 35 36  1  0     0  0
M  END
> <standard_type>
IC50

> <# Confs.>
25

> <canonical_smiles>
O=C1C2=C(C(C(CCCCCCCCCCCCCCCCC)=O)=NN2)C(N1C3=CC=CC=C3F)=O

> <standard_relation>
=

> <predicted_activity_value>
6.494850021680094

> <actual_activity_value>
6.346787486224656

> <Compound>
5

> <publication_ID>
nan

> <standard_units>
nM

> hash
14234681689596454840

$$$$
5_
XXILIB    08252103493D 0   0.00000     0.00000

 36 38  0     1  0            999 V2000
  -12.4521   -1.2074    7.9690 F   0  0  0  0  0  1           0  0  0
  -10.4888   -0.0133    8.4784 O   0  0  0  0  0  2           0  0  0
   -9.9363   -0.0350    3.8072 O   0  0  0  0  0  2           0  0  0
   -6.9384   -0.0000    3.1127 O   0  0  0  0  0  2           0  0  0
   -7.4262   -0.0163    7.5624 N   0  0  0  0  0  3           0  0  0
   -6.4357   -0.0128    6.6355 N   0  0  0  0  0  3           0  0  0
  -10.6669   -0.0241    6.0912 N   0  0  2  0  0  3           0  0  0
  -12.9368   -0.6175    6.8656 C   0  0  0  0  0  4           0  0  0
   -8.6465   -0.0188    6.9944 C   0  0  0  0  0  4           0  0  0
   -7.0792   -0.0127    5.4470 C   0  0  0  0  0  4           0  0  0
  -12.0790   -0.0252    5.9250 C   0  0  0  0  0  4           0  0  0
   -8.4634   -0.0213    5.6478 C   0  0  0  0  0  4           0  0  0
  -14.3218   -0.6185    6.6924 C   0  0  0  0  0  4           0  0  0
  -12.6642    0.5746    4.7964 C   0  0  0  0  0  4           0  0  0
  -14.8801   -0.0233    5.5663 C   0  0  0  0  0  4           0  0  0
  -14.0521    0.5731    4.6192 C   0  0  0  0  0  4           0  0  0
  -10.0256   -0.0188    7.3492 C   0  0  0  0  0  4           0  0  0
   -9.7516   -0.0275    5.0130 C   0  0  0  0  0  4           0  0  0
   -6.3442   -0.0000    4.1907 C   0  0  0  0  0  4           0  0  0
   -4.8306    0.0000    4.2191 C   0  0  0  0  0  4           0  0  0
   -4.2380   -0.0000    2.8129 C   0  0  0  0  0  4           0  0  0
   -2.7117    0.0000    2.8129 C   0  0  0  0  0  4           0  0  0
   -2.1190   -0.0000    1.4064 C   0  0  0  0  0  4           0  0  0
   -0.5927    0.0000    1.4064 C   0  0  0  0  0  4           0  0  0
    0.0000   -0.0000    0.0000 C   0  0  0  0  0  4           0  0  0
    1.5260   -0.0000   -0.0000 C   0  0  0  0  0  4           0  0  0
    2.1188    0.0000   -1.4064 C   0  0  0  0  0  4           0  0  0
    3.6450   -0.0000   -1.4064 C   0  0  0  0  0  4           0  0  0
    4.2378    0.0000   -2.8129 C   0  0  0  0  0  4           0  0  0
    3.8199    1.2180   -3.6322 C   0  0  0  0  0  4           0  0  0
    4.4127    1.2180   -5.0386 C   0  0  0  0  0  4           0  0  0
    3.9948    2.4360   -5.8580 C   0  0  0  0  0  4           0  0  0
    4.5876    2.4360   -7.2644 C   0  0  0  0  0  4           0  0  0
    4.1697    3.6540   -8.0837 C   0  0  0  0  0  4           0  0  0
    4.7625    3.6540   -9.4902 C   0  0  0  0  0  4           0  0  0
    4.3453    4.8687  -10.3060 C   0  0  0  0  0  4           0  0  0
  1  8  1  0     0  0
  2 17  2  0     0  0
  3 18  2  0     0  0
  4 19  2  0     0  0
  5  6  1  0     0  0
  5  9  1  0     0  0
  6 10  2  0     0  0
  7 11  1  0     0  0
  7 17  1  0     0  0
  7 18  1  0     0  0
  8 11  1  0     0  0
  8 13  2  0     0  0
  9 12  2  0     0  0
  9 17  1  0     0  0
 10 12  1  0     0  0
 10 19  1  0     0  0
 11 14  2  0     0  0
 12 18  1  0     0  0
 13 15  1  0     0  0
 14 16  1  0     0  0
 15 16  2  0     0  0
 19 20  1  0     0  0
 20 21  1  0     0  0
 21 22  1  0     0  0
 22 23  1  0     0  0
 23 24  1  0     0  0
 24 25  1  0     0  0
 25 26  1  0     0  0
 26 27  1  0     0  0
 27 28  1  0     0  0
 28 29  1  0     0  0
 29 30  1  0     0  0
 30 31  1  0     0  0
 31 32  1  0     0  0
 32 33  1  0     0  0
 33 34  1  0     0  0
 34 35  1  0     0  0
 35 36  1  0     0  0
M  END
> <standard_type>
IC50

> <# Confs.>
25

> <canonical_smiles>
O=C1C2=C(C(C(CCCCCCCCCCCCCCCCC)=O)=NN2)C(N1C3=CC=CC=C3F)=O

> <standard_relation>
=

> <predicted_activity_value>
6.494850021680094

> <actual_activity_value>
6.346787486224656

> <Compound>
5

> <publication_ID>
nan

> <standard_units>
nM

> hash
14234681689596454840

$$$$
5_
XXILIB    08252103493D 0   0.00000     0.00000

 36 38  0     1  0            999 V2000
  -12.4521   -1.2074    7.9690 F   0  0  0  0  0  1           0  0  0
  -10.4888   -0.0133    8.4784 O   0  0  0  0  0  2           0  0  0
   -9.9363   -0.0350    3.8072 O   0  0  0  0  0  2           0  0  0
   -6.9384   -0.0000    3.1127 O   0  0  0  0  0  2           0  0  0
   -7.4262   -0.0163    7.5624 N   0  0  0  0  0  3           0  0  0
   -6.4357   -0.0128    6.6355 N   0  0  0  0  0  3           0  0  0
  -10.6669   -0.0241    6.0912 N   0  0  2  0  0  3           0  0  0
  -12.9368   -0.6175    6.8656 C   0  0  0  0  0  4           0  0  0
   -8.6465   -0.0188    6.9944 C   0  0  0  0  0  4           0  0  0
   -7.0792   -0.0127    5.4470 C   0  0  0  0  0  4           0  0  0
  -12.0790   -0.0252    5.9250 C   0  0  0  0  0  4           0  0  0
   -8.4634   -0.0213    5.6478 C   0  0  0  0  0  4           0  0  0
  -14.3218   -0.6185    6.6924 C   0  0  0  0  0  4           0  0  0
  -12.6642    0.5746    4.7964 C   0  0  0  0  0  4           0  0  0
  -14.8801   -0.0233    5.5663 C   0  0  0  0  0  4           0  0  0
  -14.0521    0.5731    4.6192 C   0  0  0  0  0  4           0  0  0
  -10.0256   -0.0188    7.3492 C   0  0  0  0  0  4           0  0  0
   -9.7516   -0.0275    5.0130 C   0  0  0  0  0  4           0  0  0
   -6.3442   -0.0000    4.1907 C   0  0  0  0  0  4           0  0  0
   -4.8306    0.0000    4.2191 C   0  0  0  0  0  4           0  0  0
   -4.2380   -0.0000    2.8129 C   0  0  0  0  0  4           0  0  0
   -2.7117    0.0000    2.8129 C   0  0  0  0  0  4           0  0  0
   -2.1190   -0.0000    1.4064 C   0  0  0  0  0  4           0  0  0
   -0.5927    0.0000    1.4064 C   0  0  0  0  0  4           0  0  0
    0.0000   -0.0000    0.0000 C   0  0  0  0  0  4           0  0  0
    1.5260   -0.0000    0.0000 C   0  0  0  0  0  4           0  0  0
    2.1188    0.0000   -1.4064 C   0  0  0  0  0  4           0  0  0
    1.7009    1.2180   -2.2258 C   0  0  0  0  0  4           0  0  0
    2.2937    1.2180   -3.6322 C   0  0  0  0  0  4           0  0  0
    1.8759    2.4360   -4.4515 C   0  0  0  0  0  4           0  0  0
    2.4686    2.4360   -5.8580 C   0  0  0  0  0  4           0  0  0
    2.0508    3.6540   -6.6773 C   0  0  0  0  0  4           0  0  0
    2.6435    3.6540   -8.0837 C   0  0  0  0  0  4           0  0  0
    2.2257    4.8721   -8.9030 C   0  0  0  0  0  4           0  0  0
    2.8184    4.8721  -10.3095 C   0  0  0  0  0  4           0  0  0
    2.4012    6.0867  -11.1253 C   0  0  0  0  0  4           0  0  0
  1  8  1  0     0  0
  2 17  2  0     0  0
  3 18  2  0     0  0
  4 19  2  0     0  0
  5  6  1  0     0  0
  5  9  1  0     0  0
  6 10  2  0     0  0
  7 11  1  0     0  0
  7 17  1  0     0  0
  7 18  1  0     0  0
  8 11  1  0     0  0
  8 13  2  0     0  0
  9 12  2  0     0  0
  9 17  1  0     0  0
 10 12  1  0     0  0
 10 19  1  0     0  0
 11 14  2  0     0  0
 12 18  1  0     0  0
 13 15  1  0     0  0
 14 16  1  0     0  0
 15 16  2  0     0  0
 19 20  1  0     0  0
 20 21  1  0     0  0
 21 22  1  0     0  0
 22 23  1  0     0  0
 23 24  1  0     0  0
 24 25  1  0     0  0
 25 26  1  0     0  0
 26 27  1  0     0  0
 27 28  1  0     0  0
 28 29  1  0     0  0
 29 30  1  0     0  0
 30 31  1  0     0  0
 31 32  1  0     0  0
 32 33  1  0     0  0
 33 34  1  0     0  0
 34 35  1  0     0  0
 35 36  1  0     0  0
M  END
> <standard_type>
IC50

> <# Confs.>
25

> <canonical_smiles>
O=C1C2=C(C(C(CCCCCCCCCCCCCCCCC)=O)=NN2)C(N1C3=CC=CC=C3F)=O

> <standard_relation>
=

> <predicted_activity_value>
6.494850021680094

> <actual_activity_value>
6.346787486224656

> <Compound>
5

> <publication_ID>
nan

> <standard_units>
nM

> hash
14234681689596454840

$$$$
5_
XXILIB    08252103493D 0   0.00000     0.00000

 36 38  0     1  0            999 V2000
  -12.4521   -1.2074    7.9690 F   0  0  0  0  0  1           0  0  0
  -10.4888   -0.0133    8.4784 O   0  0  0  0  0  2           0  0  0
   -9.9363   -0.0350    3.8072 O   0  0  0  0  0  2           0  0  0
   -6.9384   -0.0000    3.1127 O   0  0  0  0  0  2           0  0  0
   -7.4262   -0.0163    7.5624 N   0  0  0  0  0  3           0  0  0
   -6.4357   -0.0128    6.6355 N   0  0  0  0  0  3           0  0  0
  -10.6669   -0.0241    6.0912 N   0  0  2  0  0  3           0  0  0
  -12.9368   -0.6175    6.8656 C   0  0  0  0  0  4           0  0  0
   -8.6465   -0.0188    6.9944 C   0  0  0  0  0  4           0  0  0
   -7.0792   -0.0127    5.4470 C   0  0  0  0  0  4           0  0  0
  -12.0790   -0.0252    5.9250 C   0  0  0  0  0  4           0  0  0
   -8.4634   -0.0213    5.6478 C   0  0  0  0  0  4           0  0  0
  -14.3218   -0.6185    6.6924 C   0  0  0  0  0  4           0  0  0
  -12.6642    0.5746    4.7964 C   0  0  0  0  0  4           0  0  0
  -14.8801   -0.0233    5.5663 C   0  0  0  0  0  4           0  0  0
  -14.0521    0.5731    4.6192 C   0  0  0  0  0  4           0  0  0
  -10.0256   -0.0188    7.3492 C   0  0  0  0  0  4           0  0  0
   -9.7516   -0.0275    5.0130 C   0  0  0  0  0  4           0  0  0
   -6.3442   -0.0000    4.1907 C   0  0  0  0  0  4           0  0  0
   -4.8306    0.0000    4.2191 C   0  0  0  0  0  4           0  0  0
   -4.2380   -0.0000    2.8129 C   0  0  0  0  0  4           0  0  0
   -2.7117    0.0000    2.8129 C   0  0  0  0  0  4           0  0  0
   -2.1190   -0.0000    1.4064 C   0  0  0  0  0  4           0  0  0
   -0.5927    0.0000    1.4064 C   0  0  0  0  0  4           0  0  0
    0.0000   -0.0000    0.0000 C   0  0  0  0  0  4           0  0  0
    1.5260    0.0000    0.0000 C   0  0  0  0  0  4           0  0  0
    2.1188    0.0000   -1.4064 C   0  0  0  0  0  4           0  0  0
    3.6450   -0.0000   -1.4064 C   0  0  0  0  0  4           0  0  0
    4.2378   -0.0000   -2.8129 C   0  0  0  0  0  4           0  0  0
    5.7640   -0.0000   -2.8129 C   0  0  0  0  0  4           0  0  0
    6.3567   -1.2180   -2.1097 C   0  0  0  0  0  4           0  0  0
    7.8830   -1.2180   -2.1097 C   0  0  0  0  0  4           0  0  0
    8.4757   -2.4360   -1.4064 C   0  0  0  0  0  4           0  0  0
   10.0019   -2.4360   -1.4064 C   0  0  0  0  0  4           0  0  0
   10.5947   -3.6540   -0.7032 C   0  0  0  0  0  4           0  0  0
   12.1162   -3.6530   -0.7039 C   0  0  0  0  0  4           0  0  0
  1  8  1  0     0  0
  2 17  2  0     0  0
  3 18  2  0     0  0
  4 19  2  0     0  0
  5  6  1  0     0  0
  5  9  1  0     0  0
  6 10  2  0     0  0
  7 11  1  0     0  0
  7 17  1  0     0  0
  7 18  1  0     0  0
  8 11  1  0     0  0
  8 13  2  0     0  0
  9 12  2  0     0  0
  9 17  1  0     0  0
 10 12  1  0     0  0
 10 19  1  0     0  0
 11 14  2  0     0  0
 12 18  1  0     0  0
 13 15  1  0     0  0
 14 16  1  0     0  0
 15 16  2  0     0  0
 19 20  1  0     0  0
 20 21  1  0     0  0
 21 22  1  0     0  0
 22 23  1  0     0  0
 23 24  1  0     0  0
 24 25  1  0     0  0
 25 26  1  0     0  0
 26 27  1  0     0  0
 27 28  1  0     0  0
 28 29  1  0     0  0
 29 30  1  0     0  0
 30 31  1  0     0  0
 31 32  1  0     0  0
 32 33  1  0     0  0
 33 34  1  0     0  0
 34 35  1  0     0  0
 35 36  1  0     0  0
M  END
> <standard_type>
IC50

> <# Confs.>
25

> <canonical_smiles>
O=C1C2=C(C(C(CCCCCCCCCCCCCCCCC)=O)=NN2)C(N1C3=CC=CC=C3F)=O

> <standard_relation>
=

> <predicted_activity_value>
6.494850021680094

> <actual_activity_value>
6.346787486224656

> <Compound>
5

> <publication_ID>
nan

> <standard_units>
nM

> hash
14234681689596454840

$$$$
5_
XXILIB    08252103493D 0   0.00000     0.00000

 36 38  0     1  0            999 V2000
  -12.4521   -1.2074    7.9690 F   0  0  0  0  0  1           0  0  0
  -10.4888   -0.0133    8.4784 O   0  0  0  0  0  2           0  0  0
   -9.9363   -0.0350    3.8072 O   0  0  0  0  0  2           0  0  0
   -6.9384   -0.0000    3.1127 O   0  0  0  0  0  2           0  0  0
   -7.4262   -0.0163    7.5624 N   0  0  0  0  0  3           0  0  0
   -6.4357   -0.0128    6.6355 N   0  0  0  0  0  3           0  0  0
  -10.6669   -0.0241    6.0912 N   0  0  2  0  0  3           0  0  0
  -12.9368   -0.6175    6.8656 C   0  0  0  0  0  4           0  0  0
   -8.6465   -0.0188    6.9944 C   0  0  0  0  0  4           0  0  0
   -7.0792   -0.0127    5.4470 C   0  0  0  0  0  4           0  0  0
  -12.0790   -0.0252    5.9250 C   0  0  0  0  0  4           0  0  0
   -8.4634   -0.0213    5.6478 C   0  0  0  0  0  4           0  0  0
  -14.3218   -0.6185    6.6924 C   0  0  0  0  0  4           0  0  0
  -12.6642    0.5746    4.7964 C   0  0  0  0  0  4           0  0  0
  -14.8801   -0.0233    5.5663 C   0  0  0  0  0  4           0  0  0
  -14.0521    0.5731    4.6192 C   0  0  0  0  0  4           0  0  0
  -10.0256   -0.0188    7.3492 C   0  0  0  0  0  4           0  0  0
   -9.7516   -0.0275    5.0130 C   0  0  0  0  0  4           0  0  0
   -6.3442   -0.0000    4.1907 C   0  0  0  0  0  4           0  0  0
   -4.8306    0.0000    4.2191 C   0  0  0  0  0  4           0  0  0
   -4.2380   -0.0000    2.8129 C   0  0  0  0  0  4           0  0  0
   -2.7117    0.0000    2.8129 C   0  0  0  0  0  4           0  0  0
   -2.1190   -0.0000    1.4064 C   0  0  0  0  0  4           0  0  0
   -0.5927    0.0000    1.4064 C   0  0  0  0  0  4           0  0  0
    0.0000   -0.0000    0.0000 C   0  0  0  0  0  4           0  0  0
    1.5260    0.0000   -0.0000 C   0  0  0  0  0  4           0  0  0
    2.1188   -1.2180    0.7032 C   0  0  0  0  0  4           0  0  0
    3.6450   -1.2180    0.7032 C   0  0  0  0  0  4           0  0  0
    4.2378   -2.4360    1.4064 C   0  0  0  0  0  4           0  0  0
    5.7640   -2.4360    1.4064 C   0  0  0  0  0  4           0  0  0
    6.3567   -3.6540    2.1097 C   0  0  0  0  0  4           0  0  0
    7.8830   -3.6540    2.1097 C   0  0  0  0  0  4           0  0  0
    8.4757   -4.8721    2.8129 C   0  0  0  0  0  4           0  0  0
   10.0019   -4.8721    2.8129 C   0  0  0  0  0  4           0  0  0
   10.5947   -6.0901    3.5161 C   0  0  0  0  0  4           0  0  0
   12.1162   -6.0890    3.5155 C   0  0  0  0  0  4           0  0  0
  1  8  1  0     0  0
  2 17  2  0     0  0
  3 18  2  0     0  0
  4 19  2  0     0  0
  5  6  1  0     0  0
  5  9  1  0     0  0
  6 10  2  0     0  0
  7 11  1  0     0  0
  7 17  1  0     0  0
  7 18  1  0     0  0
  8 11  1  0     0  0
  8 13  2  0     0  0
  9 12  2  0     0  0
  9 17  1  0     0  0
 10 12  1  0     0  0
 10 19  1  0     0  0
 11 14  2  0     0  0
 12 18  1  0     0  0
 13 15  1  0     0  0
 14 16  1  0     0  0
 15 16  2  0     0  0
 19 20  1  0     0  0
 20 21  1  0     0  0
 21 22  1  0     0  0
 22 23  1  0     0  0
 23 24  1  0     0  0
 24 25  1  0     0  0
 25 26  1  0     0  0
 26 27  1  0     0  0
 27 28  1  0     0  0
 28 29  1  0     0  0
 29 30  1  0     0  0
 30 31  1  0     0  0
 31 32  1  0     0  0
 32 33  1  0     0  0
 33 34  1  0     0  0
 34 35  1  0     0  0
 35 36  1  0     0  0
M  END
> <standard_type>
IC50

> <# Confs.>
25

> <canonical_smiles>
O=C1C2=C(C(C(CCCCCCCCCCCCCCCCC)=O)=NN2)C(N1C3=CC=CC=C3F)=O

> <standard_relation>
=

> <predicted_activity_value>
6.494850021680094

> <actual_activity_value>
6.346787486224656

> <Compound>
5

> <publication_ID>
nan

> <standard_units>
nM

> hash
14234681689596454840

$$$$
5_
XXILIB    08252103493D 0   0.00000     0.00000

 36 38  0     1  0            999 V2000
  -12.4521   -1.2074    7.9690 F   0  0  0  0  0  1           0  0  0
  -10.4888   -0.0133    8.4784 O   0  0  0  0  0  2           0  0  0
   -9.9363   -0.0350    3.8072 O   0  0  0  0  0  2           0  0  0
   -6.9384   -0.0000    3.1127 O   0  0  0  0  0  2           0  0  0
   -7.4262   -0.0163    7.5624 N   0  0  0  0  0  3           0  0  0
   -6.4357   -0.0128    6.6355 N   0  0  0  0  0  3           0  0  0
  -10.6669   -0.0241    6.0912 N   0  0  2  0  0  3           0  0  0
  -12.9368   -0.6175    6.8656 C   0  0  0  0  0  4           0  0  0
   -8.6465   -0.0188    6.9944 C   0  0  0  0  0  4           0  0  0
   -7.0792   -0.0127    5.4470 C   0  0  0  0  0  4           0  0  0
  -12.0790   -0.0252    5.9250 C   0  0  0  0  0  4           0  0  0
   -8.4634   -0.0213    5.6478 C   0  0  0  0  0  4           0  0  0
  -14.3218   -0.6185    6.6924 C   0  0  0  0  0  4           0  0  0
  -12.6642    0.5746    4.7964 C   0  0  0  0  0  4           0  0  0
  -14.8801   -0.0233    5.5663 C   0  0  0  0  0  4           0  0  0
  -14.0521    0.5731    4.6192 C   0  0  0  0  0  4           0  0  0
  -10.0256   -0.0188    7.3492 C   0  0  0  0  0  4           0  0  0
   -9.7516   -0.0275    5.0130 C   0  0  0  0  0  4           0  0  0
   -6.3442   -0.0000    4.1907 C   0  0  0  0  0  4           0  0  0
   -4.8306    0.0000    4.2191 C   0  0  0  0  0  4           0  0  0
   -4.2380   -0.0000    2.8129 C   0  0  0  0  0  4           0  0  0
   -2.7117    0.0000    2.8129 C   0  0  0  0  0  4           0  0  0
   -2.1190   -0.0000    1.4064 C   0  0  0  0  0  4           0  0  0
   -0.5927    0.0000    1.4064 C   0  0  0  0  0  4           0  0  0
    0.0000   -0.0000    0.0000 C   0  0  0  0  0  4           0  0  0
    1.5260    0.0000    0.0000 C   0  0  0  0  0  4           0  0  0
    2.1188    0.0000   -1.4064 C   0  0  0  0  0  4           0  0  0
    3.6450    0.0000   -1.4064 C   0  0  0  0  0  4           0  0  0
    4.2378    0.0000   -2.8129 C   0  0  0  0  0  4           0  0  0
    5.7640    0.0000   -2.8129 C   0  0  0  0  0  4           0  0  0
    6.3567    0.0000   -4.2193 C   0  0  0  0  0  4           0  0  0
    5.9389    1.2180   -5.0386 C   0  0  0  0  0  4           0  0  0
    6.5316    1.2180   -6.4451 C   0  0  0  0  0  4           0  0  0
    6.1138    2.4360   -7.2644 C   0  0  0  0  0  4           0  0  0
    6.7065    2.4360   -8.6708 C   0  0  0  0  0  4           0  0  0
    6.2893    3.6507   -9.4866 C   0  0  0  0  0  4           0  0  0
  1  8  1  0     0  0
  2 17  2  0     0  0
  3 18  2  0     0  0
  4 19  2  0     0  0
  5  6  1  0     0  0
  5  9  1  0     0  0
  6 10  2  0     0  0
  7 11  1  0     0  0
  7 17  1  0     0  0
  7 18  1  0     0  0
  8 11  1  0     0  0
  8 13  2  0     0  0
  9 12  2  0     0  0
  9 17  1  0     0  0
 10 12  1  0     0  0
 10 19  1  0     0  0
 11 14  2  0     0  0
 12 18  1  0     0  0
 13 15  1  0     0  0
 14 16  1  0     0  0
 15 16  2  0     0  0
 19 20  1  0     0  0
 20 21  1  0     0  0
 21 22  1  0     0  0
 22 23  1  0     0  0
 23 24  1  0     0  0
 24 25  1  0     0  0
 25 26  1  0     0  0
 26 27  1  0     0  0
 27 28  1  0     0  0
 28 29  1  0     0  0
 29 30  1  0     0  0
 30 31  1  0     0  0
 31 32  1  0     0  0
 32 33  1  0     0  0
 33 34  1  0     0  0
 34 35  1  0     0  0
 35 36  1  0     0  0
M  END
> <standard_type>
IC50

> <# Confs.>
25

> <canonical_smiles>
O=C1C2=C(C(C(CCCCCCCCCCCCCCCCC)=O)=NN2)C(N1C3=CC=CC=C3F)=O

> <standard_relation>
=

> <predicted_activity_value>
6.494850021680094

> <actual_activity_value>
6.346787486224656

> <Compound>
5

> <publication_ID>
nan

> <standard_units>
nM

> hash
14234681689596454840

$$$$
5_
XXILIB    08252103493D 0   0.00000     0.00000

 36 38  0     1  0            999 V2000
  -12.4524    1.1795    7.9558 F   0  0  0  0  0  1           0  0  0
  -10.4888   -0.0133    8.4784 O   0  0  0  0  0  2           0  0  0
   -9.9363   -0.0350    3.8072 O   0  0  0  0  0  2           0  0  0
   -6.9384   -0.0000    3.1127 O   0  0  0  0  0  2           0  0  0
   -7.4262   -0.0163    7.5624 N   0  0  0  0  0  3           0  0  0
   -6.4357   -0.0128    6.6355 N   0  0  0  0  0  3           0  0  0
  -10.6669   -0.0241    6.0912 N   0  0  2  0  0  3           0  0  0
  -12.9372    0.5742    6.8608 C   0  0  0  0  0  4           0  0  0
   -8.6465   -0.0188    6.9944 C   0  0  0  0  0  4           0  0  0
   -7.0792   -0.0127    5.4470 C   0  0  0  0  0  4           0  0  0
  -12.0790   -0.0252    5.9250 C   0  0  0  0  0  4           0  0  0
   -8.4634   -0.0213    5.6478 C   0  0  0  0  0  4           0  0  0
  -14.3228    0.5645    6.6924 C   0  0  0  0  0  4           0  0  0
  -12.6640   -0.6370    4.8027 C   0  0  0  0  0  4           0  0  0
  -14.8813   -0.0502    5.5770 C   0  0  0  0  0  4           0  0  0
  -14.0527   -0.6501    4.6327 C   0  0  0  0  0  4           0  0  0
  -10.0256   -0.0188    7.3492 C   0  0  0  0  0  4           0  0  0
   -9.7516   -0.0275    5.0130 C   0  0  0  0  0  4           0  0  0
   -6.3442   -0.0000    4.1907 C   0  0  0  0  0  4           0  0  0
   -4.8306    0.0000    4.2191 C   0  0  0  0  0  4           0  0  0
   -4.2380   -0.0000    2.8129 C   0  0  0  0  0  4           0  0  0
   -2.7117    0.0000    2.8129 C   0  0  0  0  0  4           0  0  0
   -2.1190   -0.0000    1.4064 C   0  0  0  0  0  4           0  0  0
   -0.5927    0.0000    1.4064 C   0  0  0  0  0  4           0  0  0
    0.0000   -0.0000    0.0000 C   0  0  0  0  0  4           0  0  0
    1.5260   -0.0000    0.0000 C   0  0  0  0  0  4           0  0  0
    2.1188    0.0000   -1.4064 C   0  0  0  0  0  4           0  0  0
    3.6450    0.0000   -1.4064 C   0  0  0  0  0  4           0  0  0
    4.2378   -1.2180   -0.7032 C   0  0  0  0  0  4           0  0  0
    5.7640   -1.2180   -0.7032 C   0  0  0  0  0  4           0  0  0
    6.3567   -2.4360    0.0000 C   0  0  0  0  0  4           0  0  0
    7.8830   -2.4360    0.0000 C   0  0  0  0  0  4           0  0  0
    8.4757   -3.6540    0.7032 C   0  0  0  0  0  4           0  0  0
   10.0019   -3.6540    0.7032 C   0  0  0  0  0  4           0  0  0
   10.5947   -4.8721    1.4064 C   0  0  0  0  0  4           0  0  0
   12.1162   -4.8710    1.4058 C   0  0  0  0  0  4           0  0  0
  1  8  1  0     0  0
  2 17  2  0     0  0
  3 18  2  0     0  0
  4 19  2  0     0  0
  5  6  1  0     0  0
  5  9  1  0     0  0
  6 10  2  0     0  0
  7 11  1  0     0  0
  7 17  1  0     0  0
  7 18  1  0     0  0
  8 11  1  0     0  0
  8 13  2  0     0  0
  9 12  2  0     0  0
  9 17  1  0     0  0
 10 12  1  0     0  0
 10 19  1  0     0  0
 11 14  2  0     0  0
 12 18  1  0     0  0
 13 15  1  0     0  0
 14 16  1  0     0  0
 15 16  2  0     0  0
 19 20  1  0     0  0
 20 21  1  0     0  0
 21 22  1  0     0  0
 22 23  1  0     0  0
 23 24  1  0     0  0
 24 25  1  0     0  0
 25 26  1  0     0  0
 26 27  1  0     0  0
 27 28  1  0     0  0
 28 29  1  0     0  0
 29 30  1  0     0  0
 30 31  1  0     0  0
 31 32  1  0     0  0
 32 33  1  0     0  0
 33 34  1  0     0  0
 34 35  1  0     0  0
 35 36  1  0     0  0
M  END
> <standard_type>
IC50

> <# Confs.>
25

> <canonical_smiles>
O=C1C2=C(C(C(CCCCCCCCCCCCCCCCC)=O)=NN2)C(N1C3=CC=CC=C3F)=O

> <standard_relation>
=

> <predicted_activity_value>
6.494850021680094

> <actual_activity_value>
6.346787486224656

> <Compound>
5

> <publication_ID>
nan

> <standard_units>
nM

> hash
14234681689596454840

$$$$
5_
XXILIB    08252103493D 0   0.00000     0.00000

 36 38  0     1  0            999 V2000
  -12.4524    1.1795    7.9558 F   0  0  0  0  0  1           0  0  0
  -10.4888   -0.0133    8.4784 O   0  0  0  0  0  2           0  0  0
   -9.9363   -0.0350    3.8072 O   0  0  0  0  0  2           0  0  0
   -6.9384   -0.0000    3.1127 O   0  0  0  0  0  2           0  0  0
   -7.4262   -0.0163    7.5624 N   0  0  0  0  0  3           0  0  0
   -6.4357   -0.0128    6.6355 N   0  0  0  0  0  3           0  0  0
  -10.6669   -0.0241    6.0912 N   0  0  2  0  0  3           0  0  0
  -12.9372    0.5742    6.8608 C   0  0  0  0  0  4           0  0  0
   -8.6465   -0.0188    6.9944 C   0  0  0  0  0  4           0  0  0
   -7.0792   -0.0127    5.4470 C   0  0  0  0  0  4           0  0  0
  -12.0790   -0.0252    5.9250 C   0  0  0  0  0  4           0  0  0
   -8.4634   -0.0213    5.6478 C   0  0  0  0  0  4           0  0  0
  -14.3228    0.5645    6.6924 C   0  0  0  0  0  4           0  0  0
  -12.6640   -0.6370    4.8027 C   0  0  0  0  0  4           0  0  0
  -14.8813   -0.0502    5.5770 C   0  0  0  0  0  4           0  0  0
  -14.0527   -0.6501    4.6327 C   0  0  0  0  0  4           0  0  0
  -10.0256   -0.0188    7.3492 C   0  0  0  0  0  4           0  0  0
   -9.7516   -0.0275    5.0130 C   0  0  0  0  0  4           0  0  0
   -6.3442   -0.0000    4.1907 C   0  0  0  0  0  4           0  0  0
   -4.8306    0.0000    4.2191 C   0  0  0  0  0  4           0  0  0
   -4.2380   -0.0000    2.8129 C   0  0  0  0  0  4           0  0  0
   -2.7117    0.0000    2.8129 C   0  0  0  0  0  4           0  0  0
   -2.1190   -0.0000    1.4064 C   0  0  0  0  0  4           0  0  0
   -0.5927    0.0000    1.4064 C   0  0  0  0  0  4           0  0  0
    0.0000   -0.0000    0.0000 C   0  0  0  0  0  4           0  0  0
    1.5260   -0.0000   -0.0000 C   0  0  0  0  0  4           0  0  0
    2.1188    0.0000   -1.4064 C   0  0  0  0  0  4           0  0  0
    3.6450   -0.0000   -1.4064 C   0  0  0  0  0  4           0  0  0
    4.2378    0.0000   -2.8129 C   0  0  0  0  0  4           0  0  0
    3.8199    1.2180   -3.6322 C   0  0  0  0  0  4           0  0  0
    4.4127    1.2180   -5.0386 C   0  0  0  0  0  4           0  0  0
    3.9948    2.4360   -5.8580 C   0  0  0  0  0  4           0  0  0
    4.5876    2.4360   -7.2644 C   0  0  0  0  0  4           0  0  0
    4.1697    3.6540   -8.0837 C   0  0  0  0  0  4           0  0  0
    4.7625    3.6540   -9.4902 C   0  0  0  0  0  4           0  0  0
    4.3453    4.8687  -10.3060 C   0  0  0  0  0  4           0  0  0
  1  8  1  0     0  0
  2 17  2  0     0  0
  3 18  2  0     0  0
  4 19  2  0     0  0
  5  6  1  0     0  0
  5  9  1  0     0  0
  6 10  2  0     0  0
  7 11  1  0     0  0
  7 17  1  0     0  0
  7 18  1  0     0  0
  8 11  1  0     0  0
  8 13  2  0     0  0
  9 12  2  0     0  0
  9 17  1  0     0  0
 10 12  1  0     0  0
 10 19  1  0     0  0
 11 14  2  0     0  0
 12 18  1  0     0  0
 13 15  1  0     0  0
 14 16  1  0     0  0
 15 16  2  0     0  0
 19 20  1  0     0  0
 20 21  1  0     0  0
 21 22  1  0     0  0
 22 23  1  0     0  0
 23 24  1  0     0  0
 24 25  1  0     0  0
 25 26  1  0     0  0
 26 27  1  0     0  0
 27 28  1  0     0  0
 28 29  1  0     0  0
 29 30  1  0     0  0
 30 31  1  0     0  0
 31 32  1  0     0  0
 32 33  1  0     0  0
 33 34  1  0     0  0
 34 35  1  0     0  0
 35 36  1  0     0  0
M  END
> <standard_type>
IC50

> <# Confs.>
25

> <canonical_smiles>
O=C1C2=C(C(C(CCCCCCCCCCCCCCCCC)=O)=NN2)C(N1C3=CC=CC=C3F)=O

> <standard_relation>
=

> <predicted_activity_value>
6.494850021680094

> <actual_activity_value>
6.346787486224656

> <Compound>
5

> <publication_ID>
nan

> <standard_units>
nM

> hash
14234681689596454840

$$$$
4_
XXILIB    08252103493D 0   0.00000     0.00000

 39 41  0     1  0            999 V2000
   -9.5717    2.7064    7.5550 O   0  0  0  0  0  2           0  0  0
  -10.5495   -0.0052    6.1287 O   0  0  0  0  0  2           0  0  0
   -6.1039   -0.0002    7.6561 O   0  0  0  0  0  2           0  0  0
   -4.1573    0.0000    5.1658 O   0  0  0  0  0  2           0  0  0
  -11.4017    2.6179    8.9499 O   0  0  0  0  0  2           0  0  0
   -8.4078    0.0014    3.7656 N   0  0  0  0  0  3           0  0  0
   -7.1486    0.0007    3.2664 N   0  0  0  0  0  3           0  0  0
   -8.4758    0.0038    7.3220 N   0  0  2  0  0  3           0  0  0
   -8.4151    0.0012    5.1111 C   0  0  0  0  0  4           0  0  0
   -6.3463    0.0008    4.3555 C   0  0  0  0  0  4           0  0  0
   -8.9361    0.0087    8.6638 C   0  0  0  0  0  4           0  0  0
   -7.1193    0.0020    5.5241 C   0  0  0  0  0  4           0  0  0
   -9.7448    1.0220    9.2191 C   0  0  0  0  0  4           0  0  0
   -8.5710   -1.0539    9.5146 C   0  0  0  0  0  4           0  0  0
  -10.1526    0.9805   10.5614 C   0  0  0  0  0  4           0  0  0
   -8.9804   -1.0970   10.8515 C   0  0  0  0  0  4           0  0  0
   -9.7686   -0.0794   11.3753 C   0  0  0  0  0  4           0  0  0
  -10.2074    2.2062    8.4700 C   0  0  0  0  0  4           0  0  0
   -9.3315    0.0000    6.2005 C   0  0  0  0  0  4           0  0  0
   -7.1075    0.0018    6.9625 C   0  0  0  0  0  4           0  0  0
   -4.9010   -0.0000    4.1838 C   0  0  0  0  0  4           0  0  0
  -11.9589    3.7640    8.2991 C   0  0  0  0  0  4           0  0  0
   -4.3028   -0.0000    2.7876 C   0  0  0  0  0  4           0  0  0
   -2.7795   -0.0000    2.7876 C   0  0  0  0  0  4           0  0  0
   -2.1537   -0.0000    1.3938 C   0  0  0  0  0  4           0  0  0
   -0.6258    0.0000    1.3938 C   0  0  0  0  0  4           0  0  0
    0.0000    0.0000    0.0000 C   0  0  0  0  0  4           0  0  0
    1.5279    0.0000    0.0000 C   0  0  0  0  0  4           0  0  0
    2.1537    0.0000   -1.3938 C   0  0  0  0  0  4           0  0  0
    3.6815    0.0000   -1.3938 C   0  0  0  0  0  4           0  0  0
    4.3073    0.0000   -2.7876 C   0  0  0  0  0  4           0  0  0
    5.8352    0.0000   -2.7876 C   0  0  0  0  0  4           0  0  0
    6.4610    0.0000   -4.1814 C   0  0  0  0  0  4           0  0  0
    7.9889    0.0000   -4.1814 C   0  0  0  0  0  4           0  0  0
    8.6147    0.0000   -5.5752 C   0  0  0  0  0  4           0  0  0
   10.1425    0.0000   -5.5752 C   0  0  0  0  0  4           0  0  0
   10.7683    0.0000   -6.9690 C   0  0  0  0  0  4           0  0  0
   12.2962    0.0000   -6.9690 C   0  0  0  0  0  4           0  0  0
   12.8546    0.0000   -8.3834 C   0  0  0  0  0  4           0  0  0
  1 18  2  0     0  0
  2 19  2  0     0  0
  3 20  2  0     0  0
  4 21  2  0     0  0
  5 18  1  0     0  0
  5 22  1  0     0  0
  6  7  1  0     0  0
  6  9  1  0     0  0
  7 10  2  0     0  0
  8 11  1  0     0  0
  8 19  1  0     0  0
  8 20  1  0     0  0
  9 12  2  0     0  0
  9 19  1  0     0  0
 10 12  1  0     0  0
 10 21  1  0     0  0
 11 13  1  0     0  0
 11 14  2  0     0  0
 12 20  1  0     0  0
 13 15  2  0     0  0
 13 18  1  0     0  0
 14 16  1  0     0  0
 15 17  1  0     0  0
 16 17  2  0     0  0
 21 23  1  0     0  0
 23 24  1  0     0  0
 24 25  1  0     0  0
 25 26  1  0     0  0
 26 27  1  0     0  0
 27 28  1  0     0  0
 28 29  1  0     0  0
 29 30  1  0     0  0
 30 31  1  0     0  0
 31 32  1  0     0  0
 32 33  1  0     0  0
 33 34  1  0     0  0
 34 35  1  0     0  0
 35 36  1  0     0  0
 36 37  1  0     0  0
 37 38  1  0     0  0
 38 39  1  0     0  0
M  END
> <standard_type>
IC50

> <# Confs.>
25

> <canonical_smiles>
O=C1C2=C(C(C(CCCCCCCCCCCCCCCCC)=O)=NN2)C(N1C3=CC=CC=C3C(OC)=O)=O

> <standard_relation>
=

> <predicted_activity_value>
5.920818753952375

> <actual_activity_value>
6.3872161432802645

> <Compound>
4

> <publication_ID>
nan

> <standard_units>
nM

> hash
7701221664575847203

$$$$
4_
XXILIB    08252103493D 0   0.00000     0.00000

 39 41  0     1  0            999 V2000
  -10.7789    2.2589    7.5108 O   0  0  0  0  0  2           0  0  0
  -10.5495   -0.0052    6.1287 O   0  0  0  0  0  2           0  0  0
   -6.1039   -0.0002    7.6561 O   0  0  0  0  0  2           0  0  0
   -4.1573    0.0000    5.1658 O   0  0  0  0  0  2           0  0  0
  -12.2877    0.6596    8.1949 O   0  0  0  0  0  2           0  0  0
   -8.4078    0.0014    3.7656 N   0  0  0  0  0  3           0  0  0
   -7.1486    0.0007    3.2664 N   0  0  0  0  0  3           0  0  0
   -8.4758    0.0038    7.3220 N   0  0  2  0  0  3           0  0  0
   -8.4151    0.0012    5.1111 C   0  0  0  0  0  4           0  0  0
   -6.3463    0.0008    4.3555 C   0  0  0  0  0  4           0  0  0
   -8.9361    0.0087    8.6638 C   0  0  0  0  0  4           0  0  0
   -7.1193    0.0020    5.5241 C   0  0  0  0  0  4           0  0  0
  -10.1491    0.5943    9.0819 C   0  0  0  0  0  4           0  0  0
   -8.1456   -0.6005    9.6589 C   0  0  0  0  0  4           0  0  0
  -10.5413    0.5839   10.4294 C   0  0  0  0  0  4           0  0  0
   -8.5382   -0.6138   11.0015 C   0  0  0  0  0  4           0  0  0
   -9.7340   -0.0201   11.3869 C   0  0  0  0  0  4           0  0  0
  -11.0869    1.2792    8.1716 C   0  0  0  0  0  4           0  0  0
   -9.3315    0.0000    6.2005 C   0  0  0  0  0  4           0  0  0
   -7.1075    0.0018    6.9625 C   0  0  0  0  0  4           0  0  0
   -4.9010   -0.0000    4.1838 C   0  0  0  0  0  4           0  0  0
  -13.2869    1.2327    7.3459 C   0  0  0  0  0  4           0  0  0
   -4.3028   -0.0000    2.7876 C   0  0  0  0  0  4           0  0  0
   -2.7795   -0.0000    2.7876 C   0  0  0  0  0  4           0  0  0
   -2.1537   -0.0000    1.3938 C   0  0  0  0  0  4           0  0  0
   -0.6258    0.0000    1.3938 C   0  0  0  0  0  4           0  0  0
    0.0000    0.0000    0.0000 C   0  0  0  0  0  4           0  0  0
    1.5279    0.0000    0.0000 C   0  0  0  0  0  4           0  0  0
    2.1537    0.0000   -1.3938 C   0  0  0  0  0  4           0  0  0
    3.6815    0.0000   -1.3938 C   0  0  0  0  0  4           0  0  0
    4.3073    0.0000   -2.7876 C   0  0  0  0  0  4           0  0  0
    5.8352    0.0000   -2.7876 C   0  0  0  0  0  4           0  0  0
    6.4610    0.0000   -4.1814 C   0  0  0  0  0  4           0  0  0
    7.9889    0.0000   -4.1814 C   0  0  0  0  0  4           0  0  0
    8.6147    0.0000   -5.5752 C   0  0  0  0  0  4           0  0  0
   10.1425    0.0000   -5.5752 C   0  0  0  0  0  4           0  0  0
   10.7683    0.0000   -6.9690 C   0  0  0  0  0  4           0  0  0
   12.2962    0.0000   -6.9690 C   0  0  0  0  0  4           0  0  0
   12.8546    0.0000   -8.3834 C   0  0  0  0  0  4           0  0  0
  1 18  2  0     0  0
  2 19  2  0     0  0
  3 20  2  0     0  0
  4 21  2  0     0  0
  5 18  1  0     0  0
  5 22  1  0     0  0
  6  7  1  0     0  0
  6  9  1  0     0  0
  7 10  2  0     0  0
  8 11  1  0     0  0
  8 19  1  0     0  0
  8 20  1  0     0  0
  9 12  2  0     0  0
  9 19  1  0     0  0
 10 12  1  0     0  0
 10 21  1  0     0  0
 11 13  1  0     0  0
 11 14  2  0     0  0
 12 20  1  0     0  0
 13 15  2  0     0  0
 13 18  1  0     0  0
 14 16  1  0     0  0
 15 17  1  0     0  0
 16 17  2  0     0  0
 21 23  1  0     0  0
 23 24  1  0     0  0
 24 25  1  0     0  0
 25 26  1  0     0  0
 26 27  1  0     0  0
 27 28  1  0     0  0
 28 29  1  0     0  0
 29 30  1  0     0  0
 30 31  1  0     0  0
 31 32  1  0     0  0
 32 33  1  0     0  0
 33 34  1  0     0  0
 34 35  1  0     0  0
 35 36  1  0     0  0
 36 37  1  0     0  0
 37 38  1  0     0  0
 38 39  1  0     0  0
M  END
> <standard_type>
IC50

> <# Confs.>
25

> <canonical_smiles>
O=C1C2=C(C(C(CCCCCCCCCCCCCCCCC)=O)=NN2)C(N1C3=CC=CC=C3C(OC)=O)=O

> <standard_relation>
=

> <predicted_activity_value>
5.920818753952375

> <actual_activity_value>
6.3872161432802645

> <Compound>
4

> <publication_ID>
nan

> <standard_units>
nM

> hash
7701221664575847203

$$$$
4_
XXILIB    08252103493D 0   0.00000     0.00000

 39 41  0     1  0            999 V2000
  -10.7891   -2.2365    7.5174 O   0  0  0  0  0  2           0  0  0
  -10.5495   -0.0052    6.1287 O   0  0  0  0  0  2           0  0  0
   -6.1039   -0.0002    7.6561 O   0  0  0  0  0  2           0  0  0
   -4.1573    0.0000    5.1658 O   0  0  0  0  0  2           0  0  0
  -12.2926   -0.6360    8.2101 O   0  0  0  0  0  2           0  0  0
   -8.4078    0.0014    3.7656 N   0  0  0  0  0  3           0  0  0
   -7.1486    0.0007    3.2664 N   0  0  0  0  0  3           0  0  0
   -8.4758    0.0038    7.3220 N   0  0  2  0  0  3           0  0  0
   -8.4151    0.0012    5.1111 C   0  0  0  0  0  4           0  0  0
   -6.3463    0.0008    4.3555 C   0  0  0  0  0  4           0  0  0
   -8.9361    0.0087    8.6638 C   0  0  0  0  0  4           0  0  0
   -7.1193    0.0020    5.5241 C   0  0  0  0  0  4           0  0  0
  -10.1494   -0.5733    9.0860 C   0  0  0  0  0  4           0  0  0
   -8.1496    0.6325    9.6531 C   0  0  0  0  0  4           0  0  0
  -10.5604   -0.5187   10.4269 C   0  0  0  0  0  4           0  0  0
   -8.5577    0.6839   10.9901 C   0  0  0  0  0  4           0  0  0
   -9.7633    0.1109   11.3764 C   0  0  0  0  0  4           0  0  0
  -11.0921   -1.2558    8.1790 C   0  0  0  0  0  4           0  0  0
   -9.3315    0.0000    6.2005 C   0  0  0  0  0  4           0  0  0
   -7.1075    0.0018    6.9625 C   0  0  0  0  0  4           0  0  0
   -4.9010   -0.0000    4.1838 C   0  0  0  0  0  4           0  0  0
  -13.2979   -1.2099    7.3691 C   0  0  0  0  0  4           0  0  0
   -4.3028   -0.0000    2.7876 C   0  0  0  0  0  4           0  0  0
   -2.7795   -0.0000    2.7876 C   0  0  0  0  0  4           0  0  0
   -2.1537   -0.0000    1.3938 C   0  0  0  0  0  4           0  0  0
   -0.6258    0.0000    1.3938 C   0  0  0  0  0  4           0  0  0
    0.0000    0.0000    0.0000 C   0  0  0  0  0  4           0  0  0
    1.5279    0.0000    0.0000 C   0  0  0  0  0  4           0  0  0
    2.1537    0.0000   -1.3938 C   0  0  0  0  0  4           0  0  0
    3.6815    0.0000   -1.3938 C   0  0  0  0  0  4           0  0  0
    4.3073    0.0000   -2.7876 C   0  0  0  0  0  4           0  0  0
    5.8352    0.0000   -2.7876 C   0  0  0  0  0  4           0  0  0
    6.4610    0.0000   -4.1814 C   0  0  0  0  0  4           0  0  0
    7.9889    0.0000   -4.1814 C   0  0  0  0  0  4           0  0  0
    8.6147    0.0000   -5.5752 C   0  0  0  0  0  4           0  0  0
   10.1425    0.0000   -5.5752 C   0  0  0  0  0  4           0  0  0
   10.7683    0.0000   -6.9690 C   0  0  0  0  0  4           0  0  0
   12.2962    0.0000   -6.9690 C   0  0  0  0  0  4           0  0  0
   12.8546    0.0000   -8.3834 C   0  0  0  0  0  4           0  0  0
  1 18  2  0     0  0
  2 19  2  0     0  0
  3 20  2  0     0  0
  4 21  2  0     0  0
  5 18  1  0     0  0
  5 22  1  0     0  0
  6  7  1  0     0  0
  6  9  1  0     0  0
  7 10  2  0     0  0
  8 11  1  0     0  0
  8 19  1  0     0  0
  8 20  1  0     0  0
  9 12  2  0     0  0
  9 19  1  0     0  0
 10 12  1  0     0  0
 10 21  1  0     0  0
 11 13  1  0     0  0
 11 14  2  0     0  0
 12 20  1  0     0  0
 13 15  2  0     0  0
 13 18  1  0     0  0
 14 16  1  0     0  0
 15 17  1  0     0  0
 16 17  2  0     0  0
 21 23  1  0     0  0
 23 24  1  0     0  0
 24 25  1  0     0  0
 25 26  1  0     0  0
 26 27  1  0     0  0
 27 28  1  0     0  0
 28 29  1  0     0  0
 29 30  1  0     0  0
 30 31  1  0     0  0
 31 32  1  0     0  0
 32 33  1  0     0  0
 33 34  1  0     0  0
 34 35  1  0     0  0
 35 36  1  0     0  0
 36 37  1  0     0  0
 37 38  1  0     0  0
 38 39  1  0     0  0
M  END
> <standard_type>
IC50

> <# Confs.>
25

> <canonical_smiles>
O=C1C2=C(C(C(CCCCCCCCCCCCCCCCC)=O)=NN2)C(N1C3=CC=CC=C3C(OC)=O)=O

> <standard_relation>
=

> <predicted_activity_value>
5.920818753952375

> <actual_activity_value>
6.3872161432802645

> <Compound>
4

> <publication_ID>
nan

> <standard_units>
nM

> hash
7701221664575847203

$$$$
4_
XXILIB    08252103493D 0   0.00000     0.00000

 39 41  0     1  0            999 V2000
   -6.7786   -2.2448    8.8995 O   0  0  0  0  0  2           0  0  0
  -10.5495   -0.0052    6.1287 O   0  0  0  0  0  2           0  0  0
   -6.1039   -0.0002    7.6561 O   0  0  0  0  0  2           0  0  0
   -4.1573    0.0000    5.1658 O   0  0  0  0  0  2           0  0  0
   -6.0040   -0.6378   10.3554 O   0  0  0  0  0  2           0  0  0
   -8.4078    0.0014    3.7656 N   0  0  0  0  0  3           0  0  0
   -7.1486    0.0007    3.2664 N   0  0  0  0  0  3           0  0  0
   -8.4758    0.0038    7.3220 N   0  0  2  0  0  3           0  0  0
   -8.4151    0.0012    5.1111 C   0  0  0  0  0  4           0  0  0
   -6.3463    0.0008    4.3555 C   0  0  0  0  0  4           0  0  0
   -8.9361    0.0087    8.6638 C   0  0  0  0  0  4           0  0  0
   -7.1193    0.0020    5.5241 C   0  0  0  0  0  4           0  0  0
   -8.2365   -0.5714    9.7423 C   0  0  0  0  0  4           0  0  0
  -10.1696    0.6226    8.9601 C   0  0  0  0  0  4           0  0  0
   -8.7541   -0.5514   11.0467 C   0  0  0  0  0  4           0  0  0
  -10.6839    0.6455   10.2608 C   0  0  0  0  0  4           0  0  0
   -9.9779    0.0570   11.3030 C   0  0  0  0  0  4           0  0  0
   -6.9389   -1.2602    9.6038 C   0  0  0  0  0  4           0  0  0
   -9.3315    0.0000    6.2005 C   0  0  0  0  0  4           0  0  0
   -7.1075    0.0018    6.9625 C   0  0  0  0  0  4           0  0  0
   -4.9010   -0.0000    4.1838 C   0  0  0  0  0  4           0  0  0
   -4.6953   -1.2141   10.3022 C   0  0  0  0  0  4           0  0  0
   -4.3028   -0.0000    2.7876 C   0  0  0  0  0  4           0  0  0
   -2.7795   -0.0000    2.7876 C   0  0  0  0  0  4           0  0  0
   -2.1537   -0.0000    1.3938 C   0  0  0  0  0  4           0  0  0
   -0.6258    0.0000    1.3938 C   0  0  0  0  0  4           0  0  0
    0.0000    0.0000    0.0000 C   0  0  0  0  0  4           0  0  0
    1.5279    0.0000    0.0000 C   0  0  0  0  0  4           0  0  0
    2.1537    0.0000   -1.3938 C   0  0  0  0  0  4           0  0  0
    3.6815    0.0000   -1.3938 C   0  0  0  0  0  4           0  0  0
    4.3073    0.0000   -2.7876 C   0  0  0  0  0  4           0  0  0
    5.8352    0.0000   -2.7876 C   0  0  0  0  0  4           0  0  0
    6.4610    0.0000   -4.1814 C   0  0  0  0  0  4           0  0  0
    7.9889    0.0000   -4.1814 C   0  0  0  0  0  4           0  0  0
    8.6147    0.0000   -5.5752 C   0  0  0  0  0  4           0  0  0
   10.1425    0.0000   -5.5752 C   0  0  0  0  0  4           0  0  0
   10.7683    0.0000   -6.9690 C   0  0  0  0  0  4           0  0  0
   12.2962    0.0000   -6.9690 C   0  0  0  0  0  4           0  0  0
   12.8546    0.0000   -8.3834 C   0  0  0  0  0  4           0  0  0
  1 18  2  0     0  0
  2 19  2  0     0  0
  3 20  2  0     0  0
  4 21  2  0     0  0
  5 18  1  0     0  0
  5 22  1  0     0  0
  6  7  1  0     0  0
  6  9  1  0     0  0
  7 10  2  0     0  0
  8 11  1  0     0  0
  8 19  1  0     0  0
  8 20  1  0     0  0
  9 12  2  0     0  0
  9 19  1  0     0  0
 10 12  1  0     0  0
 10 21  1  0     0  0
 11 13  1  0     0  0
 11 14  2  0     0  0
 12 20  1  0     0  0
 13 15  2  0     0  0
 13 18  1  0     0  0
 14 16  1  0     0  0
 15 17  1  0     0  0
 16 17  2  0     0  0
 21 23  1  0     0  0
 23 24  1  0     0  0
 24 25  1  0     0  0
 25 26  1  0     0  0
 26 27  1  0     0  0
 27 28  1  0     0  0
 28 29  1  0     0  0
 29 30  1  0     0  0
 30 31  1  0     0  0
 31 32  1  0     0  0
 32 33  1  0     0  0
 33 34  1  0     0  0
 34 35  1  0     0  0
 35 36  1  0     0  0
 36 37  1  0     0  0
 37 38  1  0     0  0
 38 39  1  0     0  0
M  END
> <standard_type>
IC50

> <# Confs.>
25

> <canonical_smiles>
O=C1C2=C(C(C(CCCCCCCCCCCCCCCCC)=O)=NN2)C(N1C3=CC=CC=C3C(OC)=O)=O

> <standard_relation>
=

> <predicted_activity_value>
5.920818753952375

> <actual_activity_value>
6.3872161432802645

> <Compound>
4

> <publication_ID>
nan

> <standard_units>
nM

> hash
7701221664575847203

$$$$
4_
XXILIB    08252103493D 0   0.00000     0.00000

 39 41  0     1  0            999 V2000
   -6.7646    2.2506    8.8818 O   0  0  0  0  0  2           0  0  0
  -10.5495   -0.0052    6.1287 O   0  0  0  0  0  2           0  0  0
   -6.1039   -0.0002    7.6561 O   0  0  0  0  0  2           0  0  0
   -4.1573    0.0000    5.1658 O   0  0  0  0  0  2           0  0  0
   -6.0066    0.6579   10.3619 O   0  0  0  0  0  2           0  0  0
   -8.4078    0.0014    3.7656 N   0  0  0  0  0  3           0  0  0
   -7.1486    0.0007    3.2664 N   0  0  0  0  0  3           0  0  0
   -8.4758    0.0038    7.3220 N   0  0  2  0  0  3           0  0  0
   -8.4151    0.0012    5.1111 C   0  0  0  0  0  4           0  0  0
   -6.3463    0.0008    4.3555 C   0  0  0  0  0  4           0  0  0
   -8.9361    0.0087    8.6638 C   0  0  0  0  0  4           0  0  0
   -7.1193    0.0020    5.5241 C   0  0  0  0  0  4           0  0  0
   -8.2362    0.5962    9.7381 C   0  0  0  0  0  4           0  0  0
  -10.1656   -0.6103    8.9660 C   0  0  0  0  0  4           0  0  0
   -8.7350    0.5511   11.0492 C   0  0  0  0  0  4           0  0  0
  -10.6644   -0.6522   10.2722 C   0  0  0  0  0  4           0  0  0
   -9.9486   -0.0740   11.3135 C   0  0  0  0  0  4           0  0  0
   -6.9337    1.2749    9.5964 C   0  0  0  0  0  4           0  0  0
   -9.3315    0.0000    6.2005 C   0  0  0  0  0  4           0  0  0
   -7.1075    0.0018    6.9625 C   0  0  0  0  0  4           0  0  0
   -4.9010   -0.0000    4.1838 C   0  0  0  0  0  4           0  0  0
   -4.6954    1.2287   10.3115 C   0  0  0  0  0  4           0  0  0
   -4.3028   -0.0000    2.7876 C   0  0  0  0  0  4           0  0  0
   -2.7795   -0.0000    2.7876 C   0  0  0  0  0  4           0  0  0
   -2.1537   -0.0000    1.3938 C   0  0  0  0  0  4           0  0  0
   -0.6258    0.0000    1.3938 C   0  0  0  0  0  4           0  0  0
    0.0000    0.0000    0.0000 C   0  0  0  0  0  4           0  0  0
    1.5279    0.0000    0.0000 C   0  0  0  0  0  4           0  0  0
    2.1537    0.0000   -1.3938 C   0  0  0  0  0  4           0  0  0
    3.6815    0.0000   -1.3938 C   0  0  0  0  0  4           0  0  0
    4.3073    0.0000   -2.7876 C   0  0  0  0  0  4           0  0  0
    5.8352    0.0000   -2.7876 C   0  0  0  0  0  4           0  0  0
    6.4610    0.0000   -4.1814 C   0  0  0  0  0  4           0  0  0
    7.9889    0.0000   -4.1814 C   0  0  0  0  0  4           0  0  0
    8.6147    0.0000   -5.5752 C   0  0  0  0  0  4           0  0  0
   10.1425    0.0000   -5.5752 C   0  0  0  0  0  4           0  0  0
   10.7683    0.0000   -6.9690 C   0  0  0  0  0  4           0  0  0
   12.2962    0.0000   -6.9690 C   0  0  0  0  0  4           0  0  0
   12.8546    0.0000   -8.3834 C   0  0  0  0  0  4           0  0  0
  1 18  2  0     0  0
  2 19  2  0     0  0
  3 20  2  0     0  0
  4 21  2  0     0  0
  5 18  1  0     0  0
  5 22  1  0     0  0
  6  7  1  0     0  0
  6  9  1  0     0  0
  7 10  2  0     0  0
  8 11  1  0     0  0
  8 19  1  0     0  0
  8 20  1  0     0  0
  9 12  2  0     0  0
  9 19  1  0     0  0
 10 12  1  0     0  0
 10 21  1  0     0  0
 11 13  1  0     0  0
 11 14  2  0     0  0
 12 20  1  0     0  0
 13 15  2  0     0  0
 13 18  1  0     0  0
 14 16  1  0     0  0
 15 17  1  0     0  0
 16 17  2  0     0  0
 21 23  1  0     0  0
 23 24  1  0     0  0
 24 25  1  0     0  0
 25 26  1  0     0  0
 26 27  1  0     0  0
 27 28  1  0     0  0
 28 29  1  0     0  0
 29 30  1  0     0  0
 30 31  1  0     0  0
 31 32  1  0     0  0
 32 33  1  0     0  0
 33 34  1  0     0  0
 34 35  1  0     0  0
 35 36  1  0     0  0
 36 37  1  0     0  0
 37 38  1  0     0  0
 38 39  1  0     0  0
M  END
> <standard_type>
IC50

> <# Confs.>
25

> <canonical_smiles>
O=C1C2=C(C(C(CCCCCCCCCCCCCCCCC)=O)=NN2)C(N1C3=CC=CC=C3C(OC)=O)=O

> <standard_relation>
=

> <predicted_activity_value>
5.920818753952375

> <actual_activity_value>
6.3872161432802645

> <Compound>
4

> <publication_ID>
nan

> <standard_units>
nM

> hash
7701221664575847203

$$$$
4_
XXILIB    08252103493D 0   0.00000     0.00000

 39 41  0     1  0            999 V2000
  -11.2609    2.7760    8.7080 O   0  0  0  0  0  2           0  0  0
  -10.5495   -0.0052    6.1287 O   0  0  0  0  0  2           0  0  0
   -6.1039   -0.0002    7.6561 O   0  0  0  0  0  2           0  0  0
   -4.1573    0.0000    5.1658 O   0  0  0  0  0  2           0  0  0
   -9.3021    2.5346    7.5219 O   0  0  0  0  0  2           0  0  0
   -8.4078    0.0014    3.7656 N   0  0  0  0  0  3           0  0  0
   -7.1486    0.0007    3.2664 N   0  0  0  0  0  3           0  0  0
   -8.4758    0.0038    7.3220 N   0  0  2  0  0  3           0  0  0
   -8.4151    0.0012    5.1111 C   0  0  0  0  0  4           0  0  0
   -6.3463    0.0008    4.3555 C   0  0  0  0  0  4           0  0  0
   -8.9361    0.0087    8.6638 C   0  0  0  0  0  4           0  0  0
   -7.1193    0.0020    5.5241 C   0  0  0  0  0  4           0  0  0
   -9.7448    1.0220    9.2191 C   0  0  0  0  0  4           0  0  0
   -8.5710   -1.0539    9.5146 C   0  0  0  0  0  4           0  0  0
  -10.1526    0.9805   10.5614 C   0  0  0  0  0  4           0  0  0
   -8.9804   -1.0970   10.8515 C   0  0  0  0  0  4           0  0  0
   -9.7686   -0.0794   11.3753 C   0  0  0  0  0  4           0  0  0
  -10.2074    2.2062    8.4700 C   0  0  0  0  0  4           0  0  0
   -9.3315    0.0000    6.2005 C   0  0  0  0  0  4           0  0  0
   -7.1075    0.0018    6.9625 C   0  0  0  0  0  4           0  0  0
   -4.9010   -0.0000    4.1838 C   0  0  0  0  0  4           0  0  0
   -9.6382    3.6754    6.7261 C   0  0  0  0  0  4           0  0  0
   -4.3028   -0.0000    2.7876 C   0  0  0  0  0  4           0  0  0
   -2.7795   -0.0000    2.7876 C   0  0  0  0  0  4           0  0  0
   -2.1537   -0.0000    1.3938 C   0  0  0  0  0  4           0  0  0
   -0.6258    0.0000    1.3938 C   0  0  0  0  0  4           0  0  0
    0.0000    0.0000    0.0000 C   0  0  0  0  0  4           0  0  0
    1.5279    0.0000    0.0000 C   0  0  0  0  0  4           0  0  0
    2.1537    0.0000   -1.3938 C   0  0  0  0  0  4           0  0  0
    3.6815    0.0000   -1.3938 C   0  0  0  0  0  4           0  0  0
    4.3073    0.0000   -2.7876 C   0  0  0  0  0  4           0  0  0
    5.8352    0.0000   -2.7876 C   0  0  0  0  0  4           0  0  0
    6.4610    0.0000   -4.1814 C   0  0  0  0  0  4           0  0  0
    7.9889    0.0000   -4.1814 C   0  0  0  0  0  4           0  0  0
    8.6147    0.0000   -5.5752 C   0  0  0  0  0  4           0  0  0
   10.1425    0.0000   -5.5752 C   0  0  0  0  0  4           0  0  0
   10.7683    0.0000   -6.9690 C   0  0  0  0  0  4           0  0  0
   12.2962    0.0000   -6.9690 C   0  0  0  0  0  4           0  0  0
   12.8546    0.0000   -8.3834 C   0  0  0  0  0  4           0  0  0
  1 18  2  0     0  0
  2 19  2  0     0  0
  3 20  2  0     0  0
  4 21  2  0     0  0
  5 18  1  0     0  0
  5 22  1  0     0  0
  6  7  1  0     0  0
  6  9  1  0     0  0
  7 10  2  0     0  0
  8 11  1  0     0  0
  8 19  1  0     0  0
  8 20  1  0     0  0
  9 12  2  0     0  0
  9 19  1  0     0  0
 10 12  1  0     0  0
 10 21  1  0     0  0
 11 13  1  0     0  0
 11 14  2  0     0  0
 12 20  1  0     0  0
 13 15  2  0     0  0
 13 18  1  0     0  0
 14 16  1  0     0  0
 15 17  1  0     0  0
 16 17  2  0     0  0
 21 23  1  0     0  0
 23 24  1  0     0  0
 24 25  1  0     0  0
 25 26  1  0     0  0
 26 27  1  0     0  0
 27 28  1  0     0  0
 28 29  1  0     0  0
 29 30  1  0     0  0
 30 31  1  0     0  0
 31 32  1  0     0  0
 32 33  1  0     0  0
 33 34  1  0     0  0
 34 35  1  0     0  0
 35 36  1  0     0  0
 36 37  1  0     0  0
 37 38  1  0     0  0
 38 39  1  0     0  0
M  END
> <standard_type>
IC50

> <# Confs.>
25

> <canonical_smiles>
O=C1C2=C(C(C(CCCCCCCCCCCCCCCCC)=O)=NN2)C(N1C3=CC=CC=C3C(OC)=O)=O

> <standard_relation>
=

> <predicted_activity_value>
5.920818753952375

> <actual_activity_value>
6.3872161432802645

> <Compound>
4

> <publication_ID>
nan

> <standard_units>
nM

> hash
7701221664575847203

$$$$
4_
XXILIB    08252103493D 0   0.00000     0.00000

 39 41  0     1  0            999 V2000
   -9.5717    2.7064    7.5550 O   0  0  0  0  0  2           0  0  0
  -10.5495   -0.0052    6.1287 O   0  0  0  0  0  2           0  0  0
   -6.1039   -0.0002    7.6561 O   0  0  0  0  0  2           0  0  0
   -4.1573    0.0000    5.1658 O   0  0  0  0  0  2           0  0  0
  -11.4017    2.6179    8.9499 O   0  0  0  0  0  2           0  0  0
   -8.4078    0.0014    3.7656 N   0  0  0  0  0  3           0  0  0
   -7.1486    0.0007    3.2664 N   0  0  0  0  0  3           0  0  0
   -8.4758    0.0038    7.3220 N   0  0  2  0  0  3           0  0  0
   -8.4151    0.0012    5.1111 C   0  0  0  0  0  4           0  0  0
   -6.3463    0.0008    4.3555 C   0  0  0  0  0  4           0  0  0
   -8.9361    0.0087    8.6638 C   0  0  0  0  0  4           0  0  0
   -7.1193    0.0020    5.5241 C   0  0  0  0  0  4           0  0  0
   -9.7448    1.0220    9.2191 C   0  0  0  0  0  4           0  0  0
   -8.5710   -1.0539    9.5146 C   0  0  0  0  0  4           0  0  0
  -10.1526    0.9805   10.5614 C   0  0  0  0  0  4           0  0  0
   -8.9804   -1.0970   10.8515 C   0  0  0  0  0  4           0  0  0
   -9.7686   -0.0794   11.3753 C   0  0  0  0  0  4           0  0  0
  -10.2074    2.2062    8.4700 C   0  0  0  0  0  4           0  0  0
   -9.3315    0.0000    6.2005 C   0  0  0  0  0  4           0  0  0
   -7.1075    0.0018    6.9625 C   0  0  0  0  0  4           0  0  0
   -4.9010   -0.0000    4.1838 C   0  0  0  0  0  4           0  0  0
  -11.9589    3.7640    8.2991 C   0  0  0  0  0  4           0  0  0
   -4.3028   -0.0000    2.7876 C   0  0  0  0  0  4           0  0  0
   -2.7795   -0.0000    2.7876 C   0  0  0  0  0  4           0  0  0
   -2.1537   -0.0000    1.3938 C   0  0  0  0  0  4           0  0  0
   -0.6258    0.0000    1.3938 C   0  0  0  0  0  4           0  0  0
    0.0000    0.0000    0.0000 C   0  0  0  0  0  4           0  0  0
    1.5279    0.0000    0.0000 C   0  0  0  0  0  4           0  0  0
    2.1537    1.2071    0.6969 C   0  0  0  0  0  4           0  0  0
    3.6815    1.2071    0.6969 C   0  0  0  0  0  4           0  0  0
    4.3073    2.4141    1.3938 C   0  0  0  0  0  4           0  0  0
    5.8352    2.4141    1.3938 C   0  0  0  0  0  4           0  0  0
    6.4610    3.6212    2.0907 C   0  0  0  0  0  4           0  0  0
    7.9889    3.6212    2.0907 C   0  0  0  0  0  4           0  0  0
    8.6147    4.8283    2.7876 C   0  0  0  0  0  4           0  0  0
   10.1425    4.8283    2.7876 C   0  0  0  0  0  4           0  0  0
   10.7683    6.0354    3.4845 C   0  0  0  0  0  4           0  0  0
   12.2962    6.0354    3.4845 C   0  0  0  0  0  4           0  0  0
   12.8546    7.2602    4.1917 C   0  0  0  0  0  4           0  0  0
  1 18  2  0     0  0
  2 19  2  0     0  0
  3 20  2  0     0  0
  4 21  2  0     0  0
  5 18  1  0     0  0
  5 22  1  0     0  0
  6  7  1  0     0  0
  6  9  1  0     0  0
  7 10  2  0     0  0
  8 11  1  0     0  0
  8 19  1  0     0  0
  8 20  1  0     0  0
  9 12  2  0     0  0
  9 19  1  0     0  0
 10 12  1  0     0  0
 10 21  1  0     0  0
 11 13  1  0     0  0
 11 14  2  0     0  0
 12 20  1  0     0  0
 13 15  2  0     0  0
 13 18  1  0     0  0
 14 16  1  0     0  0
 15 17  1  0     0  0
 16 17  2  0     0  0
 21 23  1  0     0  0
 23 24  1  0     0  0
 24 25  1  0     0  0
 25 26  1  0     0  0
 26 27  1  0     0  0
 27 28  1  0     0  0
 28 29  1  0     0  0
 29 30  1  0     0  0
 30 31  1  0     0  0
 31 32  1  0     0  0
 32 33  1  0     0  0
 33 34  1  0     0  0
 34 35  1  0     0  0
 35 36  1  0     0  0
 36 37  1  0     0  0
 37 38  1  0     0  0
 38 39  1  0     0  0
M  END
> <standard_type>
IC50

> <# Confs.>
25

> <canonical_smiles>
O=C1C2=C(C(C(CCCCCCCCCCCCCCCCC)=O)=NN2)C(N1C3=CC=CC=C3C(OC)=O)=O

> <standard_relation>
=

> <predicted_activity_value>
5.920818753952375

> <actual_activity_value>
6.3872161432802645

> <Compound>
4

> <publication_ID>
nan

> <standard_units>
nM

> hash
7701221664575847203

$$$$
4_
XXILIB    08252103493D 0   0.00000     0.00000

 39 41  0     1  0            999 V2000
   -9.5717    2.7064    7.5550 O   0  0  0  0  0  2           0  0  0
  -10.5495   -0.0052    6.1287 O   0  0  0  0  0  2           0  0  0
   -6.1039   -0.0002    7.6561 O   0  0  0  0  0  2           0  0  0
   -4.1573    0.0000    5.1658 O   0  0  0  0  0  2           0  0  0
  -11.4017    2.6179    8.9499 O   0  0  0  0  0  2           0  0  0
   -8.4078    0.0014    3.7656 N   0  0  0  0  0  3           0  0  0
   -7.1486    0.0007    3.2664 N   0  0  0  0  0  3           0  0  0
   -8.4758    0.0038    7.3220 N   0  0  2  0  0  3           0  0  0
   -8.4151    0.0012    5.1111 C   0  0  0  0  0  4           0  0  0
   -6.3463    0.0008    4.3555 C   0  0  0  0  0  4           0  0  0
   -8.9361    0.0087    8.6638 C   0  0  0  0  0  4           0  0  0
   -7.1193    0.0020    5.5241 C   0  0  0  0  0  4           0  0  0
   -9.7448    1.0220    9.2191 C   0  0  0  0  0  4           0  0  0
   -8.5710   -1.0539    9.5146 C   0  0  0  0  0  4           0  0  0
  -10.1526    0.9805   10.5614 C   0  0  0  0  0  4           0  0  0
   -8.9804   -1.0970   10.8515 C   0  0  0  0  0  4           0  0  0
   -9.7686   -0.0794   11.3753 C   0  0  0  0  0  4           0  0  0
  -10.2074    2.2062    8.4700 C   0  0  0  0  0  4           0  0  0
   -9.3315    0.0000    6.2005 C   0  0  0  0  0  4           0  0  0
   -7.1075    0.0018    6.9625 C   0  0  0  0  0  4           0  0  0
   -4.9010   -0.0000    4.1838 C   0  0  0  0  0  4           0  0  0
  -11.9589    3.7640    8.2991 C   0  0  0  0  0  4           0  0  0
   -4.3028   -0.0000    2.7876 C   0  0  0  0  0  4           0  0  0
   -2.7795   -0.0000    2.7876 C   0  0  0  0  0  4           0  0  0
   -2.1537   -0.0000    1.3938 C   0  0  0  0  0  4           0  0  0
   -0.6258    0.0000    1.3938 C   0  0  0  0  0  4           0  0  0
    0.0000    0.0000    0.0000 C   0  0  0  0  0  4           0  0  0
    1.5279    0.0000   -0.0000 C   0  0  0  0  0  4           0  0  0
    2.1537    0.0000   -1.3938 C   0  0  0  0  0  4           0  0  0
    1.7743   -1.2071   -2.2502 C   0  0  0  0  0  4           0  0  0
    2.4001   -1.2071   -3.6440 C   0  0  0  0  0  4           0  0  0
    2.0206   -2.4141   -4.5003 C   0  0  0  0  0  4           0  0  0
    2.6464   -2.4141   -5.8941 C   0  0  0  0  0  4           0  0  0
    2.2670   -3.6212   -6.7505 C   0  0  0  0  0  4           0  0  0
    2.8928   -3.6212   -8.1443 C   0  0  0  0  0  4           0  0  0
    2.5134   -4.8283   -9.0007 C   0  0  0  0  0  4           0  0  0
    3.1392   -4.8283  -10.3945 C   0  0  0  0  0  4           0  0  0
    2.7598   -6.0354  -11.2508 C   0  0  0  0  0  4           0  0  0
    3.4139   -5.9748  -12.6223 C   0  0  0  0  0  4           0  0  0
  1 18  2  0     0  0
  2 19  2  0     0  0
  3 20  2  0     0  0
  4 21  2  0     0  0
  5 18  1  0     0  0
  5 22  1  0     0  0
  6  7  1  0     0  0
  6  9  1  0     0  0
  7 10  2  0     0  0
  8 11  1  0     0  0
  8 19  1  0     0  0
  8 20  1  0     0  0
  9 12  2  0     0  0
  9 19  1  0     0  0
 10 12  1  0     0  0
 10 21  1  0     0  0
 11 13  1  0     0  0
 11 14  2  0     0  0
 12 20  1  0     0  0
 13 15  2  0     0  0
 13 18  1  0     0  0
 14 16  1  0     0  0
 15 17  1  0     0  0
 16 17  2  0     0  0
 21 23  1  0     0  0
 23 24  1  0     0  0
 24 25  1  0     0  0
 25 26  1  0     0  0
 26 27  1  0     0  0
 27 28  1  0     0  0
 28 29  1  0     0  0
 29 30  1  0     0  0
 30 31  1  0     0  0
 31 32  1  0     0  0
 32 33  1  0     0  0
 33 34  1  0     0  0
 34 35  1  0     0  0
 35 36  1  0     0  0
 36 37  1  0     0  0
 37 38  1  0     0  0
 38 39  1  0     0  0
M  END
> <standard_type>
IC50

> <# Confs.>
25

> <canonical_smiles>
O=C1C2=C(C(C(CCCCCCCCCCCCCCCCC)=O)=NN2)C(N1C3=CC=CC=C3C(OC)=O)=O

> <standard_relation>
=

> <predicted_activity_value>
5.920818753952375

> <actual_activity_value>
6.3872161432802645

> <Compound>
4

> <publication_ID>
nan

> <standard_units>
nM

> hash
7701221664575847203

$$$$
4_
XXILIB    08252103493D 0   0.00000     0.00000

 39 41  0     1  0            999 V2000
   -9.5717    2.7064    7.5550 O   0  0  0  0  0  2           0  0  0
  -10.5495   -0.0052    6.1287 O   0  0  0  0  0  2           0  0  0
   -6.1039   -0.0002    7.6561 O   0  0  0  0  0  2           0  0  0
   -4.1573    0.0000    5.1658 O   0  0  0  0  0  2           0  0  0
  -11.4017    2.6179    8.9499 O   0  0  0  0  0  2           0  0  0
   -8.4078    0.0014    3.7656 N   0  0  0  0  0  3           0  0  0
   -7.1486    0.0007    3.2664 N   0  0  0  0  0  3           0  0  0
   -8.4758    0.0038    7.3220 N   0  0  2  0  0  3           0  0  0
   -8.4151    0.0012    5.1111 C   0  0  0  0  0  4           0  0  0
   -6.3463    0.0008    4.3555 C   0  0  0  0  0  4           0  0  0
   -8.9361    0.0087    8.6638 C   0  0  0  0  0  4           0  0  0
   -7.1193    0.0020    5.5241 C   0  0  0  0  0  4           0  0  0
   -9.7448    1.0220    9.2191 C   0  0  0  0  0  4           0  0  0
   -8.5710   -1.0539    9.5146 C   0  0  0  0  0  4           0  0  0
  -10.1526    0.9805   10.5614 C   0  0  0  0  0  4           0  0  0
   -8.9804   -1.0970   10.8515 C   0  0  0  0  0  4           0  0  0
   -9.7686   -0.0794   11.3753 C   0  0  0  0  0  4           0  0  0
  -10.2074    2.2062    8.4700 C   0  0  0  0  0  4           0  0  0
   -9.3315    0.0000    6.2005 C   0  0  0  0  0  4           0  0  0
   -7.1075    0.0018    6.9625 C   0  0  0  0  0  4           0  0  0
   -4.9010   -0.0000    4.1838 C   0  0  0  0  0  4           0  0  0
  -11.9589    3.7640    8.2991 C   0  0  0  0  0  4           0  0  0
   -4.3028   -0.0000    2.7876 C   0  0  0  0  0  4           0  0  0
   -2.7795   -0.0000    2.7876 C   0  0  0  0  0  4           0  0  0
   -2.1537   -0.0000    1.3938 C   0  0  0  0  0  4           0  0  0
   -0.6258    0.0000    1.3938 C   0  0  0  0  0  4           0  0  0
    0.0000    0.0000    0.0000 C   0  0  0  0  0  4           0  0  0
    1.5279   -0.0000   -0.0000 C   0  0  0  0  0  4           0  0  0
    2.1537    0.0000   -1.3938 C   0  0  0  0  0  4           0  0  0
    3.6815    0.0000   -1.3938 C   0  0  0  0  0  4           0  0  0
    4.3073    1.2071   -0.6969 C   0  0  0  0  0  4           0  0  0
    5.8352    1.2071   -0.6969 C   0  0  0  0  0  4           0  0  0
    6.4610    2.4141   -0.0000 C   0  0  0  0  0  4           0  0  0
    7.9889    2.4141   -0.0000 C   0  0  0  0  0  4           0  0  0
    8.6147    3.6212    0.6969 C   0  0  0  0  0  4           0  0  0
   10.1425    3.6212    0.6969 C   0  0  0  0  0  4           0  0  0
   10.7683    4.8283    1.3938 C   0  0  0  0  0  4           0  0  0
   12.2962    4.8283    1.3938 C   0  0  0  0  0  4           0  0  0
   12.8546    6.0532    2.1010 C   0  0  0  0  0  4           0  0  0
  1 18  2  0     0  0
  2 19  2  0     0  0
  3 20  2  0     0  0
  4 21  2  0     0  0
  5 18  1  0     0  0
  5 22  1  0     0  0
  6  7  1  0     0  0
  6  9  1  0     0  0
  7 10  2  0     0  0
  8 11  1  0     0  0
  8 19  1  0     0  0
  8 20  1  0     0  0
  9 12  2  0     0  0
  9 19  1  0     0  0
 10 12  1  0     0  0
 10 21  1  0     0  0
 11 13  1  0     0  0
 11 14  2  0     0  0
 12 20  1  0     0  0
 13 15  2  0     0  0
 13 18  1  0     0  0
 14 16  1  0     0  0
 15 17  1  0     0  0
 16 17  2  0     0  0
 21 23  1  0     0  0
 23 24  1  0     0  0
 24 25  1  0     0  0
 25 26  1  0     0  0
 26 27  1  0     0  0
 27 28  1  0     0  0
 28 29  1  0     0  0
 29 30  1  0     0  0
 30 31  1  0     0  0
 31 32  1  0     0  0
 32 33  1  0     0  0
 33 34  1  0     0  0
 34 35  1  0     0  0
 35 36  1  0     0  0
 36 37  1  0     0  0
 37 38  1  0     0  0
 38 39  1  0     0  0
M  END
> <standard_type>
IC50

> <# Confs.>
25

> <canonical_smiles>
O=C1C2=C(C(C(CCCCCCCCCCCCCCCCC)=O)=NN2)C(N1C3=CC=CC=C3C(OC)=O)=O

> <standard_relation>
=

> <predicted_activity_value>
5.920818753952375

> <actual_activity_value>
6.3872161432802645

> <Compound>
4

> <publication_ID>
nan

> <standard_units>
nM

> hash
7701221664575847203

$$$$
4_
XXILIB    08252103493D 0   0.00000     0.00000

 39 41  0     1  0            999 V2000
   -9.5717    2.7064    7.5550 O   0  0  0  0  0  2           0  0  0
  -10.5495   -0.0052    6.1287 O   0  0  0  0  0  2           0  0  0
   -6.1039   -0.0002    7.6561 O   0  0  0  0  0  2           0  0  0
   -4.1573    0.0000    5.1658 O   0  0  0  0  0  2           0  0  0
  -11.4017    2.6179    8.9499 O   0  0  0  0  0  2           0  0  0
   -8.4078    0.0014    3.7656 N   0  0  0  0  0  3           0  0  0
   -7.1486    0.0007    3.2664 N   0  0  0  0  0  3           0  0  0
   -8.4758    0.0038    7.3220 N   0  0  2  0  0  3           0  0  0
   -8.4151    0.0012    5.1111 C   0  0  0  0  0  4           0  0  0
   -6.3463    0.0008    4.3555 C   0  0  0  0  0  4           0  0  0
   -8.9361    0.0087    8.6638 C   0  0  0  0  0  4           0  0  0
   -7.1193    0.0020    5.5241 C   0  0  0  0  0  4           0  0  0
   -9.7448    1.0220    9.2191 C   0  0  0  0  0  4           0  0  0
   -8.5710   -1.0539    9.5146 C   0  0  0  0  0  4           0  0  0
  -10.1526    0.9805   10.5614 C   0  0  0  0  0  4           0  0  0
   -8.9804   -1.0970   10.8515 C   0  0  0  0  0  4           0  0  0
   -9.7686   -0.0794   11.3753 C   0  0  0  0  0  4           0  0  0
  -10.2074    2.2062    8.4700 C   0  0  0  0  0  4           0  0  0
   -9.3315    0.0000    6.2005 C   0  0  0  0  0  4           0  0  0
   -7.1075    0.0018    6.9625 C   0  0  0  0  0  4           0  0  0
   -4.9010   -0.0000    4.1838 C   0  0  0  0  0  4           0  0  0
  -11.9589    3.7640    8.2991 C   0  0  0  0  0  4           0  0  0
   -4.3028   -0.0000    2.7876 C   0  0  0  0  0  4           0  0  0
   -2.7795   -0.0000    2.7876 C   0  0  0  0  0  4           0  0  0
   -2.1537   -0.0000    1.3938 C   0  0  0  0  0  4           0  0  0
   -0.6258    0.0000    1.3938 C   0  0  0  0  0  4           0  0  0
    0.0000    0.0000    0.0000 C   0  0  0  0  0  4           0  0  0
    1.5279   -0.0000    0.0000 C   0  0  0  0  0  4           0  0  0
    2.1537    0.0000   -1.3938 C   0  0  0  0  0  4           0  0  0
    3.6815   -0.0000   -1.3938 C   0  0  0  0  0  4           0  0  0
    4.3073   -0.0000   -2.7876 C   0  0  0  0  0  4           0  0  0
    3.9279   -1.2071   -3.6440 C   0  0  0  0  0  4           0  0  0
    4.5537   -1.2071   -5.0378 C   0  0  0  0  0  4           0  0  0
    4.1743   -2.4141   -5.8941 C   0  0  0  0  0  4           0  0  0
    4.8001   -2.4141   -7.2879 C   0  0  0  0  0  4           0  0  0
    4.4207   -3.6212   -8.1443 C   0  0  0  0  0  4           0  0  0
    5.0465   -3.6212   -9.5381 C   0  0  0  0  0  4           0  0  0
    4.6671   -4.8283  -10.3945 C   0  0  0  0  0  4           0  0  0
    5.3211   -4.7678  -11.7659 C   0  0  0  0  0  4           0  0  0
  1 18  2  0     0  0
  2 19  2  0     0  0
  3 20  2  0     0  0
  4 21  2  0     0  0
  5 18  1  0     0  0
  5 22  1  0     0  0
  6  7  1  0     0  0
  6  9  1  0     0  0
  7 10  2  0     0  0
  8 11  1  0     0  0
  8 19  1  0     0  0
  8 20  1  0     0  0
  9 12  2  0     0  0
  9 19  1  0     0  0
 10 12  1  0     0  0
 10 21  1  0     0  0
 11 13  1  0     0  0
 11 14  2  0     0  0
 12 20  1  0     0  0
 13 15  2  0     0  0
 13 18  1  0     0  0
 14 16  1  0     0  0
 15 17  1  0     0  0
 16 17  2  0     0  0
 21 23  1  0     0  0
 23 24  1  0     0  0
 24 25  1  0     0  0
 25 26  1  0     0  0
 26 27  1  0     0  0
 27 28  1  0     0  0
 28 29  1  0     0  0
 29 30  1  0     0  0
 30 31  1  0     0  0
 31 32  1  0     0  0
 32 33  1  0     0  0
 33 34  1  0     0  0
 34 35  1  0     0  0
 35 36  1  0     0  0
 36 37  1  0     0  0
 37 38  1  0     0  0
 38 39  1  0     0  0
M  END
> <standard_type>
IC50

> <# Confs.>
25

> <canonical_smiles>
O=C1C2=C(C(C(CCCCCCCCCCCCCCCCC)=O)=NN2)C(N1C3=CC=CC=C3C(OC)=O)=O

> <standard_relation>
=

> <predicted_activity_value>
5.920818753952375

> <actual_activity_value>
6.3872161432802645

> <Compound>
4

> <publication_ID>
nan

> <standard_units>
nM

> hash
7701221664575847203

$$$$
4_
XXILIB    08252103493D 0   0.00000     0.00000

 39 41  0     1  0            999 V2000
   -9.5717    2.7064    7.5550 O   0  0  0  0  0  2           0  0  0
  -10.5495   -0.0052    6.1287 O   0  0  0  0  0  2           0  0  0
   -6.1039   -0.0002    7.6561 O   0  0  0  0  0  2           0  0  0
   -4.1573    0.0000    5.1658 O   0  0  0  0  0  2           0  0  0
  -11.4017    2.6179    8.9499 O   0  0  0  0  0  2           0  0  0
   -8.4078    0.0014    3.7656 N   0  0  0  0  0  3           0  0  0
   -7.1486    0.0007    3.2664 N   0  0  0  0  0  3           0  0  0
   -8.4758    0.0038    7.3220 N   0  0  2  0  0  3           0  0  0
   -8.4151    0.0012    5.1111 C   0  0  0  0  0  4           0  0  0
   -6.3463    0.0008    4.3555 C   0  0  0  0  0  4           0  0  0
   -8.9361    0.0087    8.6638 C   0  0  0  0  0  4           0  0  0
   -7.1193    0.0020    5.5241 C   0  0  0  0  0  4           0  0  0
   -9.7448    1.0220    9.2191 C   0  0  0  0  0  4           0  0  0
   -8.5710   -1.0539    9.5146 C   0  0  0  0  0  4           0  0  0
  -10.1526    0.9805   10.5614 C   0  0  0  0  0  4           0  0  0
   -8.9804   -1.0970   10.8515 C   0  0  0  0  0  4           0  0  0
   -9.7686   -0.0794   11.3753 C   0  0  0  0  0  4           0  0  0
  -10.2074    2.2062    8.4700 C   0  0  0  0  0  4           0  0  0
   -9.3315    0.0000    6.2005 C   0  0  0  0  0  4           0  0  0
   -7.1075    0.0018    6.9625 C   0  0  0  0  0  4           0  0  0
   -4.9010   -0.0000    4.1838 C   0  0  0  0  0  4           0  0  0
  -11.9589    3.7640    8.2991 C   0  0  0  0  0  4           0  0  0
   -4.3028   -0.0000    2.7876 C   0  0  0  0  0  4           0  0  0
   -2.7795   -0.0000    2.7876 C   0  0  0  0  0  4           0  0  0
   -2.1537   -0.0000    1.3938 C   0  0  0  0  0  4           0  0  0
   -0.6258    0.0000    1.3938 C   0  0  0  0  0  4           0  0  0
    0.0000    0.0000    0.0000 C   0  0  0  0  0  4           0  0  0
    1.5279    0.0000    0.0000 C   0  0  0  0  0  4           0  0  0
    2.1537    0.0000   -1.3938 C   0  0  0  0  0  4           0  0  0
    3.6815    0.0000   -1.3938 C   0  0  0  0  0  4           0  0  0
    4.3073    0.0000   -2.7876 C   0  0  0  0  0  4           0  0  0
    5.8352    0.0000   -2.7876 C   0  0  0  0  0  4           0  0  0
    6.4610    1.2071   -2.0907 C   0  0  0  0  0  4           0  0  0
    7.9889    1.2071   -2.0907 C   0  0  0  0  0  4           0  0  0
    8.6147    2.4141   -1.3938 C   0  0  0  0  0  4           0  0  0
   10.1425    2.4141   -1.3938 C   0  0  0  0  0  4           0  0  0
   10.7683    3.6212   -0.6969 C   0  0  0  0  0  4           0  0  0
   12.2962    3.6212   -0.6969 C   0  0  0  0  0  4           0  0  0
   12.8546    4.8461    0.0103 C   0  0  0  0  0  4           0  0  0
  1 18  2  0     0  0
  2 19  2  0     0  0
  3 20  2  0     0  0
  4 21  2  0     0  0
  5 18  1  0     0  0
  5 22  1  0     0  0
  6  7  1  0     0  0
  6  9  1  0     0  0
  7 10  2  0     0  0
  8 11  1  0     0  0
  8 19  1  0     0  0
  8 20  1  0     0  0
  9 12  2  0     0  0
  9 19  1  0     0  0
 10 12  1  0     0  0
 10 21  1  0     0  0
 11 13  1  0     0  0
 11 14  2  0     0  0
 12 20  1  0     0  0
 13 15  2  0     0  0
 13 18  1  0     0  0
 14 16  1  0     0  0
 15 17  1  0     0  0
 16 17  2  0     0  0
 21 23  1  0     0  0
 23 24  1  0     0  0
 24 25  1  0     0  0
 25 26  1  0     0  0
 26 27  1  0     0  0
 27 28  1  0     0  0
 28 29  1  0     0  0
 29 30  1  0     0  0
 30 31  1  0     0  0
 31 32  1  0     0  0
 32 33  1  0     0  0
 33 34  1  0     0  0
 34 35  1  0     0  0
 35 36  1  0     0  0
 36 37  1  0     0  0
 37 38  1  0     0  0
 38 39  1  0     0  0
M  END
> <standard_type>
IC50

> <# Confs.>
25

> <canonical_smiles>
O=C1C2=C(C(C(CCCCCCCCCCCCCCCCC)=O)=NN2)C(N1C3=CC=CC=C3C(OC)=O)=O

> <standard_relation>
=

> <predicted_activity_value>
5.920818753952375

> <actual_activity_value>
6.3872161432802645

> <Compound>
4

> <publication_ID>
nan

> <standard_units>
nM

> hash
7701221664575847203

$$$$
4_
XXILIB    08252103493D 0   0.00000     0.00000

 39 41  0     1  0            999 V2000
   -9.5717    2.7064    7.5550 O   0  0  0  0  0  2           0  0  0
  -10.5495   -0.0052    6.1287 O   0  0  0  0  0  2           0  0  0
   -6.1039   -0.0002    7.6561 O   0  0  0  0  0  2           0  0  0
   -4.1573    0.0000    5.1658 O   0  0  0  0  0  2           0  0  0
  -11.4017    2.6179    8.9499 O   0  0  0  0  0  2           0  0  0
   -8.4078    0.0014    3.7656 N   0  0  0  0  0  3           0  0  0
   -7.1486    0.0007    3.2664 N   0  0  0  0  0  3           0  0  0
   -8.4758    0.0038    7.3220 N   0  0  2  0  0  3           0  0  0
   -8.4151    0.0012    5.1111 C   0  0  0  0  0  4           0  0  0
   -6.3463    0.0008    4.3555 C   0  0  0  0  0  4           0  0  0
   -8.9361    0.0087    8.6638 C   0  0  0  0  0  4           0  0  0
   -7.1193    0.0020    5.5241 C   0  0  0  0  0  4           0  0  0
   -9.7448    1.0220    9.2191 C   0  0  0  0  0  4           0  0  0
   -8.5710   -1.0539    9.5146 C   0  0  0  0  0  4           0  0  0
  -10.1526    0.9805   10.5614 C   0  0  0  0  0  4           0  0  0
   -8.9804   -1.0970   10.8515 C   0  0  0  0  0  4           0  0  0
   -9.7686   -0.0794   11.3753 C   0  0  0  0  0  4           0  0  0
  -10.2074    2.2062    8.4700 C   0  0  0  0  0  4           0  0  0
   -9.3315    0.0000    6.2005 C   0  0  0  0  0  4           0  0  0
   -7.1075    0.0018    6.9625 C   0  0  0  0  0  4           0  0  0
   -4.9010   -0.0000    4.1838 C   0  0  0  0  0  4           0  0  0
  -11.9589    3.7640    8.2991 C   0  0  0  0  0  4           0  0  0
   -4.3028   -0.0000    2.7876 C   0  0  0  0  0  4           0  0  0
   -2.7795   -0.0000    2.7876 C   0  0  0  0  0  4           0  0  0
   -2.1537   -0.0000    1.3938 C   0  0  0  0  0  4           0  0  0
   -0.6258    0.0000    1.3938 C   0  0  0  0  0  4           0  0  0
    0.0000    0.0000    0.0000 C   0  0  0  0  0  4           0  0  0
    1.5279   -0.0000    0.0000 C   0  0  0  0  0  4           0  0  0
    2.1537    0.0000   -1.3938 C   0  0  0  0  0  4           0  0  0
    3.6815   -0.0000   -1.3938 C   0  0  0  0  0  4           0  0  0
    4.3073    0.0000   -2.7876 C   0  0  0  0  0  4           0  0  0
    5.8352   -0.0000   -2.7876 C   0  0  0  0  0  4           0  0  0
    6.4610   -0.0000   -4.1814 C   0  0  0  0  0  4           0  0  0
    6.0816   -1.2071   -5.0378 C   0  0  0  0  0  4           0  0  0
    6.7074   -1.2071   -6.4316 C   0  0  0  0  0  4           0  0  0
    6.3280   -2.4141   -7.2879 C   0  0  0  0  0  4           0  0  0
    6.9538   -2.4141   -8.6817 C   0  0  0  0  0  4           0  0  0
    6.5743   -3.6212   -9.5381 C   0  0  0  0  0  4           0  0  0
    7.2284   -3.5607  -10.9096 C   0  0  0  0  0  4           0  0  0
  1 18  2  0     0  0
  2 19  2  0     0  0
  3 20  2  0     0  0
  4 21  2  0     0  0
  5 18  1  0     0  0
  5 22  1  0     0  0
  6  7  1  0     0  0
  6  9  1  0     0  0
  7 10  2  0     0  0
  8 11  1  0     0  0
  8 19  1  0     0  0
  8 20  1  0     0  0
  9 12  2  0     0  0
  9 19  1  0     0  0
 10 12  1  0     0  0
 10 21  1  0     0  0
 11 13  1  0     0  0
 11 14  2  0     0  0
 12 20  1  0     0  0
 13 15  2  0     0  0
 13 18  1  0     0  0
 14 16  1  0     0  0
 15 17  1  0     0  0
 16 17  2  0     0  0
 21 23  1  0     0  0
 23 24  1  0     0  0
 24 25  1  0     0  0
 25 26  1  0     0  0
 26 27  1  0     0  0
 27 28  1  0     0  0
 28 29  1  0     0  0
 29 30  1  0     0  0
 30 31  1  0     0  0
 31 32  1  0     0  0
 32 33  1  0     0  0
 33 34  1  0     0  0
 34 35  1  0     0  0
 35 36  1  0     0  0
 36 37  1  0     0  0
 37 38  1  0     0  0
 38 39  1  0     0  0
M  END
> <standard_type>
IC50

> <# Confs.>
25

> <canonical_smiles>
O=C1C2=C(C(C(CCCCCCCCCCCCCCCCC)=O)=NN2)C(N1C3=CC=CC=C3C(OC)=O)=O

> <standard_relation>
=

> <predicted_activity_value>
5.920818753952375

> <actual_activity_value>
6.3872161432802645

> <Compound>
4

> <publication_ID>
nan

> <standard_units>
nM

> hash
7701221664575847203

$$$$
4_
XXILIB    08252103493D 0   0.00000     0.00000

 39 41  0     1  0            999 V2000
   -9.5717    2.7064    7.5550 O   0  0  0  0  0  2           0  0  0
  -10.5495   -0.0052    6.1287 O   0  0  0  0  0  2           0  0  0
   -6.1039   -0.0002    7.6561 O   0  0  0  0  0  2           0  0  0
   -4.1573    0.0000    5.1658 O   0  0  0  0  0  2           0  0  0
  -11.4017    2.6179    8.9499 O   0  0  0  0  0  2           0  0  0
   -8.4078    0.0014    3.7656 N   0  0  0  0  0  3           0  0  0
   -7.1486    0.0007    3.2664 N   0  0  0  0  0  3           0  0  0
   -8.4758    0.0038    7.3220 N   0  0  2  0  0  3           0  0  0
   -8.4151    0.0012    5.1111 C   0  0  0  0  0  4           0  0  0
   -6.3463    0.0008    4.3555 C   0  0  0  0  0  4           0  0  0
   -8.9361    0.0087    8.6638 C   0  0  0  0  0  4           0  0  0
   -7.1193    0.0020    5.5241 C   0  0  0  0  0  4           0  0  0
   -9.7448    1.0220    9.2191 C   0  0  0  0  0  4           0  0  0
   -8.5710   -1.0539    9.5146 C   0  0  0  0  0  4           0  0  0
  -10.1526    0.9805   10.5614 C   0  0  0  0  0  4           0  0  0
   -8.9804   -1.0970   10.8515 C   0  0  0  0  0  4           0  0  0
   -9.7686   -0.0794   11.3753 C   0  0  0  0  0  4           0  0  0
  -10.2074    2.2062    8.4700 C   0  0  0  0  0  4           0  0  0
   -9.3315    0.0000    6.2005 C   0  0  0  0  0  4           0  0  0
   -7.1075    0.0018    6.9625 C   0  0  0  0  0  4           0  0  0
   -4.9010   -0.0000    4.1838 C   0  0  0  0  0  4           0  0  0
  -11.9589    3.7640    8.2991 C   0  0  0  0  0  4           0  0  0
   -4.3028   -0.0000    2.7876 C   0  0  0  0  0  4           0  0  0
   -2.7795   -0.0000    2.7876 C   0  0  0  0  0  4           0  0  0
   -2.1537   -0.0000    1.3938 C   0  0  0  0  0  4           0  0  0
   -0.6258    0.0000    1.3938 C   0  0  0  0  0  4           0  0  0
    0.0000    0.0000    0.0000 C   0  0  0  0  0  4           0  0  0
    1.5279    0.0000    0.0000 C   0  0  0  0  0  4           0  0  0
    2.1537    0.0000   -1.3938 C   0  0  0  0  0  4           0  0  0
    3.6815    0.0000   -1.3938 C   0  0  0  0  0  4           0  0  0
    4.3073    0.0000   -2.7876 C   0  0  0  0  0  4           0  0  0
    5.8352    0.0000   -2.7876 C   0  0  0  0  0  4           0  0  0
    6.4610    0.0000   -4.1814 C   0  0  0  0  0  4           0  0  0
    7.9889    0.0000   -4.1814 C   0  0  0  0  0  4           0  0  0
    8.6147    1.2071   -3.4845 C   0  0  0  0  0  4           0  0  0
   10.1425    1.2071   -3.4845 C   0  0  0  0  0  4           0  0  0
   10.7683    2.4141   -2.7876 C   0  0  0  0  0  4           0  0  0
   12.2962    2.4141   -2.7876 C   0  0  0  0  0  4           0  0  0
   12.8546    3.6390   -2.0804 C   0  0  0  0  0  4           0  0  0
  1 18  2  0     0  0
  2 19  2  0     0  0
  3 20  2  0     0  0
  4 21  2  0     0  0
  5 18  1  0     0  0
  5 22  1  0     0  0
  6  7  1  0     0  0
  6  9  1  0     0  0
  7 10  2  0     0  0
  8 11  1  0     0  0
  8 19  1  0     0  0
  8 20  1  0     0  0
  9 12  2  0     0  0
  9 19  1  0     0  0
 10 12  1  0     0  0
 10 21  1  0     0  0
 11 13  1  0     0  0
 11 14  2  0     0  0
 12 20  1  0     0  0
 13 15  2  0     0  0
 13 18  1  0     0  0
 14 16  1  0     0  0
 15 17  1  0     0  0
 16 17  2  0     0  0
 21 23  1  0     0  0
 23 24  1  0     0  0
 24 25  1  0     0  0
 25 26  1  0     0  0
 26 27  1  0     0  0
 27 28  1  0     0  0
 28 29  1  0     0  0
 29 30  1  0     0  0
 30 31  1  0     0  0
 31 32  1  0     0  0
 32 33  1  0     0  0
 33 34  1  0     0  0
 34 35  1  0     0  0
 35 36  1  0     0  0
 36 37  1  0     0  0
 37 38  1  0     0  0
 38 39  1  0     0  0
M  END
> <standard_type>
IC50

> <# Confs.>
25

> <canonical_smiles>
O=C1C2=C(C(C(CCCCCCCCCCCCCCCCC)=O)=NN2)C(N1C3=CC=CC=C3C(OC)=O)=O

> <standard_relation>
=

> <predicted_activity_value>
5.920818753952375

> <actual_activity_value>
6.3872161432802645

> <Compound>
4

> <publication_ID>
nan

> <standard_units>
nM

> hash
7701221664575847203

$$$$
4_
XXILIB    08252103493D 0   0.00000     0.00000

 39 41  0     1  0            999 V2000
   -9.5717    2.7064    7.5550 O   0  0  0  0  0  2           0  0  0
  -10.5495   -0.0052    6.1287 O   0  0  0  0  0  2           0  0  0
   -6.1039   -0.0002    7.6561 O   0  0  0  0  0  2           0  0  0
   -4.1573    0.0000    5.1658 O   0  0  0  0  0  2           0  0  0
  -11.4017    2.6179    8.9499 O   0  0  0  0  0  2           0  0  0
   -8.4078    0.0014    3.7656 N   0  0  0  0  0  3           0  0  0
   -7.1486    0.0007    3.2664 N   0  0  0  0  0  3           0  0  0
   -8.4758    0.0038    7.3220 N   0  0  2  0  0  3           0  0  0
   -8.4151    0.0012    5.1111 C   0  0  0  0  0  4           0  0  0
   -6.3463    0.0008    4.3555 C   0  0  0  0  0  4           0  0  0
   -8.9361    0.0087    8.6638 C   0  0  0  0  0  4           0  0  0
   -7.1193    0.0020    5.5241 C   0  0  0  0  0  4           0  0  0
   -9.7448    1.0220    9.2191 C   0  0  0  0  0  4           0  0  0
   -8.5710   -1.0539    9.5146 C   0  0  0  0  0  4           0  0  0
  -10.1526    0.9805   10.5614 C   0  0  0  0  0  4           0  0  0
   -8.9804   -1.0970   10.8515 C   0  0  0  0  0  4           0  0  0
   -9.7686   -0.0794   11.3753 C   0  0  0  0  0  4           0  0  0
  -10.2074    2.2062    8.4700 C   0  0  0  0  0  4           0  0  0
   -9.3315    0.0000    6.2005 C   0  0  0  0  0  4           0  0  0
   -7.1075    0.0018    6.9625 C   0  0  0  0  0  4           0  0  0
   -4.9010   -0.0000    4.1838 C   0  0  0  0  0  4           0  0  0
  -11.9589    3.7640    8.2991 C   0  0  0  0  0  4           0  0  0
   -4.3028   -0.0000    2.7876 C   0  0  0  0  0  4           0  0  0
   -2.7795   -0.0000    2.7876 C   0  0  0  0  0  4           0  0  0
   -2.1537   -0.0000    1.3938 C   0  0  0  0  0  4           0  0  0
   -0.6258    0.0000    1.3938 C   0  0  0  0  0  4           0  0  0
    0.0000    0.0000    0.0000 C   0  0  0  0  0  4           0  0  0
    1.5279    0.0000    0.0000 C   0  0  0  0  0  4           0  0  0
    2.1537    0.0000   -1.3938 C   0  0  0  0  0  4           0  0  0
    3.6815    0.0000   -1.3938 C   0  0  0  0  0  4           0  0  0
    4.3073    0.0000   -2.7876 C   0  0  0  0  0  4           0  0  0
    5.8352    0.0000   -2.7876 C   0  0  0  0  0  4           0  0  0
    6.4610    0.0000   -4.1814 C   0  0  0  0  0  4           0  0  0
    7.9889    0.0000   -4.1814 C   0  0  0  0  0  4           0  0  0
    8.6147    0.0000   -5.5752 C   0  0  0  0  0  4           0  0  0
    8.2352   -1.2071   -6.4316 C   0  0  0  0  0  4           0  0  0
    8.8611   -1.2071   -7.8254 C   0  0  0  0  0  4           0  0  0
    8.4816   -2.4141   -8.6817 C   0  0  0  0  0  4           0  0  0
    9.1357   -2.3536  -10.0532 C   0  0  0  0  0  4           0  0  0
  1 18  2  0     0  0
  2 19  2  0     0  0
  3 20  2  0     0  0
  4 21  2  0     0  0
  5 18  1  0     0  0
  5 22  1  0     0  0
  6  7  1  0     0  0
  6  9  1  0     0  0
  7 10  2  0     0  0
  8 11  1  0     0  0
  8 19  1  0     0  0
  8 20  1  0     0  0
  9 12  2  0     0  0
  9 19  1  0     0  0
 10 12  1  0     0  0
 10 21  1  0     0  0
 11 13  1  0     0  0
 11 14  2  0     0  0
 12 20  1  0     0  0
 13 15  2  0     0  0
 13 18  1  0     0  0
 14 16  1  0     0  0
 15 17  1  0     0  0
 16 17  2  0     0  0
 21 23  1  0     0  0
 23 24  1  0     0  0
 24 25  1  0     0  0
 25 26  1  0     0  0
 26 27  1  0     0  0
 27 28  1  0     0  0
 28 29  1  0     0  0
 29 30  1  0     0  0
 30 31  1  0     0  0
 31 32  1  0     0  0
 32 33  1  0     0  0
 33 34  1  0     0  0
 34 35  1  0     0  0
 35 36  1  0     0  0
 36 37  1  0     0  0
 37 38  1  0     0  0
 38 39  1  0     0  0
M  END
> <standard_type>
IC50

> <# Confs.>
25

> <canonical_smiles>
O=C1C2=C(C(C(CCCCCCCCCCCCCCCCC)=O)=NN2)C(N1C3=CC=CC=C3C(OC)=O)=O

> <standard_relation>
=

> <predicted_activity_value>
5.920818753952375

> <actual_activity_value>
6.3872161432802645

> <Compound>
4

> <publication_ID>
nan

> <standard_units>
nM

> hash
7701221664575847203

$$$$
4_
XXILIB    08252103493D 0   0.00000     0.00000

 39 41  0     1  0            999 V2000
   -9.5717    2.7064    7.5550 O   0  0  0  0  0  2           0  0  0
  -10.5495   -0.0052    6.1287 O   0  0  0  0  0  2           0  0  0
   -6.1039   -0.0002    7.6561 O   0  0  0  0  0  2           0  0  0
   -4.1573    0.0000    5.1658 O   0  0  0  0  0  2           0  0  0
  -11.4017    2.6179    8.9499 O   0  0  0  0  0  2           0  0  0
   -8.4078    0.0014    3.7656 N   0  0  0  0  0  3           0  0  0
   -7.1486    0.0007    3.2664 N   0  0  0  0  0  3           0  0  0
   -8.4758    0.0038    7.3220 N   0  0  2  0  0  3           0  0  0
   -8.4151    0.0012    5.1111 C   0  0  0  0  0  4           0  0  0
   -6.3463    0.0008    4.3555 C   0  0  0  0  0  4           0  0  0
   -8.9361    0.0087    8.6638 C   0  0  0  0  0  4           0  0  0
   -7.1193    0.0020    5.5241 C   0  0  0  0  0  4           0  0  0
   -9.7448    1.0220    9.2191 C   0  0  0  0  0  4           0  0  0
   -8.5710   -1.0539    9.5146 C   0  0  0  0  0  4           0  0  0
  -10.1526    0.9805   10.5614 C   0  0  0  0  0  4           0  0  0
   -8.9804   -1.0970   10.8515 C   0  0  0  0  0  4           0  0  0
   -9.7686   -0.0794   11.3753 C   0  0  0  0  0  4           0  0  0
  -10.2074    2.2062    8.4700 C   0  0  0  0  0  4           0  0  0
   -9.3315    0.0000    6.2005 C   0  0  0  0  0  4           0  0  0
   -7.1075    0.0018    6.9625 C   0  0  0  0  0  4           0  0  0
   -4.9010   -0.0000    4.1838 C   0  0  0  0  0  4           0  0  0
  -11.9589    3.7640    8.2991 C   0  0  0  0  0  4           0  0  0
   -4.3028   -0.0000    2.7876 C   0  0  0  0  0  4           0  0  0
   -2.7795   -0.0000    2.7876 C   0  0  0  0  0  4           0  0  0
   -2.1537   -0.0000    1.3938 C   0  0  0  0  0  4           0  0  0
   -0.6258    0.0000    1.3938 C   0  0  0  0  0  4           0  0  0
    0.0000    0.0000    0.0000 C   0  0  0  0  0  4           0  0  0
    1.5279    0.0000    0.0000 C   0  0  0  0  0  4           0  0  0
    2.1537    0.0000   -1.3938 C   0  0  0  0  0  4           0  0  0
    3.6815    0.0000   -1.3938 C   0  0  0  0  0  4           0  0  0
    4.3073    0.0000   -2.7876 C   0  0  0  0  0  4           0  0  0
    5.8352    0.0000   -2.7876 C   0  0  0  0  0  4           0  0  0
    6.4610    0.0000   -4.1814 C   0  0  0  0  0  4           0  0  0
    7.9889    0.0000   -4.1814 C   0  0  0  0  0  4           0  0  0
    8.6147    0.0000   -5.5752 C   0  0  0  0  0  4           0  0  0
   10.1425    0.0000   -5.5752 C   0  0  0  0  0  4           0  0  0
   10.7683    1.2071   -4.8783 C   0  0  0  0  0  4           0  0  0
   12.2962    1.2071   -4.8783 C   0  0  0  0  0  4           0  0  0
   12.8546    2.4320   -4.1711 C   0  0  0  0  0  4           0  0  0
  1 18  2  0     0  0
  2 19  2  0     0  0
  3 20  2  0     0  0
  4 21  2  0     0  0
  5 18  1  0     0  0
  5 22  1  0     0  0
  6  7  1  0     0  0
  6  9  1  0     0  0
  7 10  2  0     0  0
  8 11  1  0     0  0
  8 19  1  0     0  0
  8 20  1  0     0  0
  9 12  2  0     0  0
  9 19  1  0     0  0
 10 12  1  0     0  0
 10 21  1  0     0  0
 11 13  1  0     0  0
 11 14  2  0     0  0
 12 20  1  0     0  0
 13 15  2  0     0  0
 13 18  1  0     0  0
 14 16  1  0     0  0
 15 17  1  0     0  0
 16 17  2  0     0  0
 21 23  1  0     0  0
 23 24  1  0     0  0
 24 25  1  0     0  0
 25 26  1  0     0  0
 26 27  1  0     0  0
 27 28  1  0     0  0
 28 29  1  0     0  0
 29 30  1  0     0  0
 30 31  1  0     0  0
 31 32  1  0     0  0
 32 33  1  0     0  0
 33 34  1  0     0  0
 34 35  1  0     0  0
 35 36  1  0     0  0
 36 37  1  0     0  0
 37 38  1  0     0  0
 38 39  1  0     0  0
M  END
> <standard_type>
IC50

> <# Confs.>
25

> <canonical_smiles>
O=C1C2=C(C(C(CCCCCCCCCCCCCCCCC)=O)=NN2)C(N1C3=CC=CC=C3C(OC)=O)=O

> <standard_relation>
=

> <predicted_activity_value>
5.920818753952375

> <actual_activity_value>
6.3872161432802645

> <Compound>
4

> <publication_ID>
nan

> <standard_units>
nM

> hash
7701221664575847203

$$$$
4_
XXILIB    08252103493D 0   0.00000     0.00000

 39 41  0     1  0            999 V2000
   -9.5717    2.7064    7.5550 O   0  0  0  0  0  2           0  0  0
  -10.5495   -0.0052    6.1287 O   0  0  0  0  0  2           0  0  0
   -6.1039   -0.0002    7.6561 O   0  0  0  0  0  2           0  0  0
   -4.1573    0.0000    5.1658 O   0  0  0  0  0  2           0  0  0
  -11.4017    2.6179    8.9499 O   0  0  0  0  0  2           0  0  0
   -8.4078    0.0014    3.7656 N   0  0  0  0  0  3           0  0  0
   -7.1486    0.0007    3.2664 N   0  0  0  0  0  3           0  0  0
   -8.4758    0.0038    7.3220 N   0  0  2  0  0  3           0  0  0
   -8.4151    0.0012    5.1111 C   0  0  0  0  0  4           0  0  0
   -6.3463    0.0008    4.3555 C   0  0  0  0  0  4           0  0  0
   -8.9361    0.0087    8.6638 C   0  0  0  0  0  4           0  0  0
   -7.1193    0.0020    5.5241 C   0  0  0  0  0  4           0  0  0
   -9.7448    1.0220    9.2191 C   0  0  0  0  0  4           0  0  0
   -8.5710   -1.0539    9.5146 C   0  0  0  0  0  4           0  0  0
  -10.1526    0.9805   10.5614 C   0  0  0  0  0  4           0  0  0
   -8.9804   -1.0970   10.8515 C   0  0  0  0  0  4           0  0  0
   -9.7686   -0.0794   11.3753 C   0  0  0  0  0  4           0  0  0
  -10.2074    2.2062    8.4700 C   0  0  0  0  0  4           0  0  0
   -9.3315    0.0000    6.2005 C   0  0  0  0  0  4           0  0  0
   -7.1075    0.0018    6.9625 C   0  0  0  0  0  4           0  0  0
   -4.9010   -0.0000    4.1838 C   0  0  0  0  0  4           0  0  0
  -11.9589    3.7640    8.2991 C   0  0  0  0  0  4           0  0  0
   -4.3028   -0.0000    2.7876 C   0  0  0  0  0  4           0  0  0
   -2.7795   -0.0000    2.7876 C   0  0  0  0  0  4           0  0  0
   -2.1537   -0.0000    1.3938 C   0  0  0  0  0  4           0  0  0
   -0.6258    0.0000    1.3938 C   0  0  0  0  0  4           0  0  0
    0.0000    0.0000    0.0000 C   0  0  0  0  0  4           0  0  0
    1.5279    0.0000    0.0000 C   0  0  0  0  0  4           0  0  0
    2.1537   -1.2071    0.6969 C   0  0  0  0  0  4           0  0  0
    3.6815   -1.2071    0.6969 C   0  0  0  0  0  4           0  0  0
    4.3073   -2.4141    1.3938 C   0  0  0  0  0  4           0  0  0
    5.8352   -2.4141    1.3938 C   0  0  0  0  0  4           0  0  0
    6.4610   -3.6212    2.0907 C   0  0  0  0  0  4           0  0  0
    7.9889   -3.6212    2.0907 C   0  0  0  0  0  4           0  0  0
    8.6147   -4.8283    2.7876 C   0  0  0  0  0  4           0  0  0
   10.1425   -4.8283    2.7876 C   0  0  0  0  0  4           0  0  0
   10.7683   -6.0354    3.4845 C   0  0  0  0  0  4           0  0  0
   12.2962   -6.0354    3.4845 C   0  0  0  0  0  4           0  0  0
   12.8546   -7.2602    4.1917 C   0  0  0  0  0  4           0  0  0
  1 18  2  0     0  0
  2 19  2  0     0  0
  3 20  2  0     0  0
  4 21  2  0     0  0
  5 18  1  0     0  0
  5 22  1  0     0  0
  6  7  1  0     0  0
  6  9  1  0     0  0
  7 10  2  0     0  0
  8 11  1  0     0  0
  8 19  1  0     0  0
  8 20  1  0     0  0
  9 12  2  0     0  0
  9 19  1  0     0  0
 10 12  1  0     0  0
 10 21  1  0     0  0
 11 13  1  0     0  0
 11 14  2  0     0  0
 12 20  1  0     0  0
 13 15  2  0     0  0
 13 18  1  0     0  0
 14 16  1  0     0  0
 15 17  1  0     0  0
 16 17  2  0     0  0
 21 23  1  0     0  0
 23 24  1  0     0  0
 24 25  1  0     0  0
 25 26  1  0     0  0
 26 27  1  0     0  0
 27 28  1  0     0  0
 28 29  1  0     0  0
 29 30  1  0     0  0
 30 31  1  0     0  0
 31 32  1  0     0  0
 32 33  1  0     0  0
 33 34  1  0     0  0
 34 35  1  0     0  0
 35 36  1  0     0  0
 36 37  1  0     0  0
 37 38  1  0     0  0
 38 39  1  0     0  0
M  END
> <standard_type>
IC50

> <# Confs.>
25

> <canonical_smiles>
O=C1C2=C(C(C(CCCCCCCCCCCCCCCCC)=O)=NN2)C(N1C3=CC=CC=C3C(OC)=O)=O

> <standard_relation>
=

> <predicted_activity_value>
5.920818753952375

> <actual_activity_value>
6.3872161432802645

> <Compound>
4

> <publication_ID>
nan

> <standard_units>
nM

> hash
7701221664575847203

$$$$
4_
XXILIB    08252103493D 0   0.00000     0.00000

 39 41  0     1  0            999 V2000
   -9.5717    2.7064    7.5550 O   0  0  0  0  0  2           0  0  0
  -10.5495   -0.0052    6.1287 O   0  0  0  0  0  2           0  0  0
   -6.1039   -0.0002    7.6561 O   0  0  0  0  0  2           0  0  0
   -4.1573    0.0000    5.1658 O   0  0  0  0  0  2           0  0  0
  -11.4017    2.6179    8.9499 O   0  0  0  0  0  2           0  0  0
   -8.4078    0.0014    3.7656 N   0  0  0  0  0  3           0  0  0
   -7.1486    0.0007    3.2664 N   0  0  0  0  0  3           0  0  0
   -8.4758    0.0038    7.3220 N   0  0  2  0  0  3           0  0  0
   -8.4151    0.0012    5.1111 C   0  0  0  0  0  4           0  0  0
   -6.3463    0.0008    4.3555 C   0  0  0  0  0  4           0  0  0
   -8.9361    0.0087    8.6638 C   0  0  0  0  0  4           0  0  0
   -7.1193    0.0020    5.5241 C   0  0  0  0  0  4           0  0  0
   -9.7448    1.0220    9.2191 C   0  0  0  0  0  4           0  0  0
   -8.5710   -1.0539    9.5146 C   0  0  0  0  0  4           0  0  0
  -10.1526    0.9805   10.5614 C   0  0  0  0  0  4           0  0  0
   -8.9804   -1.0970   10.8515 C   0  0  0  0  0  4           0  0  0
   -9.7686   -0.0794   11.3753 C   0  0  0  0  0  4           0  0  0
  -10.2074    2.2062    8.4700 C   0  0  0  0  0  4           0  0  0
   -9.3315    0.0000    6.2005 C   0  0  0  0  0  4           0  0  0
   -7.1075    0.0018    6.9625 C   0  0  0  0  0  4           0  0  0
   -4.9010   -0.0000    4.1838 C   0  0  0  0  0  4           0  0  0
  -11.9589    3.7640    8.2991 C   0  0  0  0  0  4           0  0  0
   -4.3028   -0.0000    2.7876 C   0  0  0  0  0  4           0  0  0
   -2.7795   -0.0000    2.7876 C   0  0  0  0  0  4           0  0  0
   -2.1537   -0.0000    1.3938 C   0  0  0  0  0  4           0  0  0
   -0.6258    0.0000    1.3938 C   0  0  0  0  0  4           0  0  0
    0.0000    0.0000    0.0000 C   0  0  0  0  0  4           0  0  0
    1.5279    0.0000   -0.0000 C   0  0  0  0  0  4           0  0  0
    2.1537    0.0000   -1.3938 C   0  0  0  0  0  4           0  0  0
    1.7743    1.2071   -2.2502 C   0  0  0  0  0  4           0  0  0
    2.4001    1.2071   -3.6440 C   0  0  0  0  0  4           0  0  0
    2.0206    2.4141   -4.5003 C   0  0  0  0  0  4           0  0  0
    2.6464    2.4141   -5.8941 C   0  0  0  0  0  4           0  0  0
    2.2670    3.6212   -6.7505 C   0  0  0  0  0  4           0  0  0
    2.8928    3.6212   -8.1443 C   0  0  0  0  0  4           0  0  0
    2.5134    4.8283   -9.0007 C   0  0  0  0  0  4           0  0  0
    3.1392    4.8283  -10.3945 C   0  0  0  0  0  4           0  0  0
    2.7598    6.0354  -11.2508 C   0  0  0  0  0  4           0  0  0
    3.4139    5.9748  -12.6223 C   0  0  0  0  0  4           0  0  0
  1 18  2  0     0  0
  2 19  2  0     0  0
  3 20  2  0     0  0
  4 21  2  0     0  0
  5 18  1  0     0  0
  5 22  1  0     0  0
  6  7  1  0     0  0
  6  9  1  0     0  0
  7 10  2  0     0  0
  8 11  1  0     0  0
  8 19  1  0     0  0
  8 20  1  0     0  0
  9 12  2  0     0  0
  9 19  1  0     0  0
 10 12  1  0     0  0
 10 21  1  0     0  0
 11 13  1  0     0  0
 11 14  2  0     0  0
 12 20  1  0     0  0
 13 15  2  0     0  0
 13 18  1  0     0  0
 14 16  1  0     0  0
 15 17  1  0     0  0
 16 17  2  0     0  0
 21 23  1  0     0  0
 23 24  1  0     0  0
 24 25  1  0     0  0
 25 26  1  0     0  0
 26 27  1  0     0  0
 27 28  1  0     0  0
 28 29  1  0     0  0
 29 30  1  0     0  0
 30 31  1  0     0  0
 31 32  1  0     0  0
 32 33  1  0     0  0
 33 34  1  0     0  0
 34 35  1  0     0  0
 35 36  1  0     0  0
 36 37  1  0     0  0
 37 38  1  0     0  0
 38 39  1  0     0  0
M  END
> <standard_type>
IC50

> <# Confs.>
25

> <canonical_smiles>
O=C1C2=C(C(C(CCCCCCCCCCCCCCCCC)=O)=NN2)C(N1C3=CC=CC=C3C(OC)=O)=O

> <standard_relation>
=

> <predicted_activity_value>
5.920818753952375

> <actual_activity_value>
6.3872161432802645

> <Compound>
4

> <publication_ID>
nan

> <standard_units>
nM

> hash
7701221664575847203

$$$$
4_
XXILIB    08252103493D 0   0.00000     0.00000

 39 41  0     1  0            999 V2000
   -9.5717    2.7064    7.5550 O   0  0  0  0  0  2           0  0  0
  -10.5495   -0.0052    6.1287 O   0  0  0  0  0  2           0  0  0
   -6.1039   -0.0002    7.6561 O   0  0  0  0  0  2           0  0  0
   -4.1573    0.0000    5.1658 O   0  0  0  0  0  2           0  0  0
  -11.4017    2.6179    8.9499 O   0  0  0  0  0  2           0  0  0
   -8.4078    0.0014    3.7656 N   0  0  0  0  0  3           0  0  0
   -7.1486    0.0007    3.2664 N   0  0  0  0  0  3           0  0  0
   -8.4758    0.0038    7.3220 N   0  0  2  0  0  3           0  0  0
   -8.4151    0.0012    5.1111 C   0  0  0  0  0  4           0  0  0
   -6.3463    0.0008    4.3555 C   0  0  0  0  0  4           0  0  0
   -8.9361    0.0087    8.6638 C   0  0  0  0  0  4           0  0  0
   -7.1193    0.0020    5.5241 C   0  0  0  0  0  4           0  0  0
   -9.7448    1.0220    9.2191 C   0  0  0  0  0  4           0  0  0
   -8.5710   -1.0539    9.5146 C   0  0  0  0  0  4           0  0  0
  -10.1526    0.9805   10.5614 C   0  0  0  0  0  4           0  0  0
   -8.9804   -1.0970   10.8515 C   0  0  0  0  0  4           0  0  0
   -9.7686   -0.0794   11.3753 C   0  0  0  0  0  4           0  0  0
  -10.2074    2.2062    8.4700 C   0  0  0  0  0  4           0  0  0
   -9.3315    0.0000    6.2005 C   0  0  0  0  0  4           0  0  0
   -7.1075    0.0018    6.9625 C   0  0  0  0  0  4           0  0  0
   -4.9010   -0.0000    4.1838 C   0  0  0  0  0  4           0  0  0
  -11.9589    3.7640    8.2991 C   0  0  0  0  0  4           0  0  0
   -4.3028   -0.0000    2.7876 C   0  0  0  0  0  4           0  0  0
   -2.7795   -0.0000    2.7876 C   0  0  0  0  0  4           0  0  0
   -2.1537   -0.0000    1.3938 C   0  0  0  0  0  4           0  0  0
   -0.6258    0.0000    1.3938 C   0  0  0  0  0  4           0  0  0
    0.0000    0.0000    0.0000 C   0  0  0  0  0  4           0  0  0
    1.5279   -0.0000   -0.0000 C   0  0  0  0  0  4           0  0  0
    2.1537    0.0000   -1.3938 C   0  0  0  0  0  4           0  0  0
    3.6815    0.0000   -1.3938 C   0  0  0  0  0  4           0  0  0
    4.3073   -1.2071   -0.6969 C   0  0  0  0  0  4           0  0  0
    5.8352   -1.2071   -0.6969 C   0  0  0  0  0  4           0  0  0
    6.4610   -2.4141    0.0000 C   0  0  0  0  0  4           0  0  0
    7.9889   -2.4141    0.0000 C   0  0  0  0  0  4           0  0  0
    8.6147   -3.6212    0.6969 C   0  0  0  0  0  4           0  0  0
   10.1425   -3.6212    0.6969 C   0  0  0  0  0  4           0  0  0
   10.7683   -4.8283    1.3938 C   0  0  0  0  0  4           0  0  0
   12.2962   -4.8283    1.3938 C   0  0  0  0  0  4           0  0  0
   12.8546   -6.0532    2.1010 C   0  0  0  0  0  4           0  0  0
  1 18  2  0     0  0
  2 19  2  0     0  0
  3 20  2  0     0  0
  4 21  2  0     0  0
  5 18  1  0     0  0
  5 22  1  0     0  0
  6  7  1  0     0  0
  6  9  1  0     0  0
  7 10  2  0     0  0
  8 11  1  0     0  0
  8 19  1  0     0  0
  8 20  1  0     0  0
  9 12  2  0     0  0
  9 19  1  0     0  0
 10 12  1  0     0  0
 10 21  1  0     0  0
 11 13  1  0     0  0
 11 14  2  0     0  0
 12 20  1  0     0  0
 13 15  2  0     0  0
 13 18  1  0     0  0
 14 16  1  0     0  0
 15 17  1  0     0  0
 16 17  2  0     0  0
 21 23  1  0     0  0
 23 24  1  0     0  0
 24 25  1  0     0  0
 25 26  1  0     0  0
 26 27  1  0     0  0
 27 28  1  0     0  0
 28 29  1  0     0  0
 29 30  1  0     0  0
 30 31  1  0     0  0
 31 32  1  0     0  0
 32 33  1  0     0  0
 33 34  1  0     0  0
 34 35  1  0     0  0
 35 36  1  0     0  0
 36 37  1  0     0  0
 37 38  1  0     0  0
 38 39  1  0     0  0
M  END
> <standard_type>
IC50

> <# Confs.>
25

> <canonical_smiles>
O=C1C2=C(C(C(CCCCCCCCCCCCCCCCC)=O)=NN2)C(N1C3=CC=CC=C3C(OC)=O)=O

> <standard_relation>
=

> <predicted_activity_value>
5.920818753952375

> <actual_activity_value>
6.3872161432802645

> <Compound>
4

> <publication_ID>
nan

> <standard_units>
nM

> hash
7701221664575847203

$$$$
4_
XXILIB    08252103493D 0   0.00000     0.00000

 39 41  0     1  0            999 V2000
   -9.5717    2.7064    7.5550 O   0  0  0  0  0  2           0  0  0
  -10.5495   -0.0052    6.1287 O   0  0  0  0  0  2           0  0  0
   -6.1039   -0.0002    7.6561 O   0  0  0  0  0  2           0  0  0
   -4.1573    0.0000    5.1658 O   0  0  0  0  0  2           0  0  0
  -11.4017    2.6179    8.9499 O   0  0  0  0  0  2           0  0  0
   -8.4078    0.0014    3.7656 N   0  0  0  0  0  3           0  0  0
   -7.1486    0.0007    3.2664 N   0  0  0  0  0  3           0  0  0
   -8.4758    0.0038    7.3220 N   0  0  2  0  0  3           0  0  0
   -8.4151    0.0012    5.1111 C   0  0  0  0  0  4           0  0  0
   -6.3463    0.0008    4.3555 C   0  0  0  0  0  4           0  0  0
   -8.9361    0.0087    8.6638 C   0  0  0  0  0  4           0  0  0
   -7.1193    0.0020    5.5241 C   0  0  0  0  0  4           0  0  0
   -9.7448    1.0220    9.2191 C   0  0  0  0  0  4           0  0  0
   -8.5710   -1.0539    9.5146 C   0  0  0  0  0  4           0  0  0
  -10.1526    0.9805   10.5614 C   0  0  0  0  0  4           0  0  0
   -8.9804   -1.0970   10.8515 C   0  0  0  0  0  4           0  0  0
   -9.7686   -0.0794   11.3753 C   0  0  0  0  0  4           0  0  0
  -10.2074    2.2062    8.4700 C   0  0  0  0  0  4           0  0  0
   -9.3315    0.0000    6.2005 C   0  0  0  0  0  4           0  0  0
   -7.1075    0.0018    6.9625 C   0  0  0  0  0  4           0  0  0
   -4.9010   -0.0000    4.1838 C   0  0  0  0  0  4           0  0  0
  -11.9589    3.7640    8.2991 C   0  0  0  0  0  4           0  0  0
   -4.3028   -0.0000    2.7876 C   0  0  0  0  0  4           0  0  0
   -2.7795   -0.0000    2.7876 C   0  0  0  0  0  4           0  0  0
   -2.1537   -0.0000    1.3938 C   0  0  0  0  0  4           0  0  0
   -0.6258    0.0000    1.3938 C   0  0  0  0  0  4           0  0  0
    0.0000    0.0000    0.0000 C   0  0  0  0  0  4           0  0  0
    1.5279    0.0000   -0.0000 C   0  0  0  0  0  4           0  0  0
    2.1537    0.0000   -1.3938 C   0  0  0  0  0  4           0  0  0
    3.6815    0.0000   -1.3938 C   0  0  0  0  0  4           0  0  0
    4.3073    0.0000   -2.7876 C   0  0  0  0  0  4           0  0  0
    3.9279    1.2071   -3.6440 C   0  0  0  0  0  4           0  0  0
    4.5537    1.2071   -5.0378 C   0  0  0  0  0  4           0  0  0
    4.1743    2.4141   -5.8941 C   0  0  0  0  0  4           0  0  0
    4.8001    2.4141   -7.2879 C   0  0  0  0  0  4           0  0  0
    4.4207    3.6212   -8.1443 C   0  0  0  0  0  4           0  0  0
    5.0465    3.6212   -9.5381 C   0  0  0  0  0  4           0  0  0
    4.6671    4.8283  -10.3945 C   0  0  0  0  0  4           0  0  0
    5.3211    4.7678  -11.7659 C   0  0  0  0  0  4           0  0  0
  1 18  2  0     0  0
  2 19  2  0     0  0
  3 20  2  0     0  0
  4 21  2  0     0  0
  5 18  1  0     0  0
  5 22  1  0     0  0
  6  7  1  0     0  0
  6  9  1  0     0  0
  7 10  2  0     0  0
  8 11  1  0     0  0
  8 19  1  0     0  0
  8 20  1  0     0  0
  9 12  2  0     0  0
  9 19  1  0     0  0
 10 12  1  0     0  0
 10 21  1  0     0  0
 11 13  1  0     0  0
 11 14  2  0     0  0
 12 20  1  0     0  0
 13 15  2  0     0  0
 13 18  1  0     0  0
 14 16  1  0     0  0
 15 17  1  0     0  0
 16 17  2  0     0  0
 21 23  1  0     0  0
 23 24  1  0     0  0
 24 25  1  0     0  0
 25 26  1  0     0  0
 26 27  1  0     0  0
 27 28  1  0     0  0
 28 29  1  0     0  0
 29 30  1  0     0  0
 30 31  1  0     0  0
 31 32  1  0     0  0
 32 33  1  0     0  0
 33 34  1  0     0  0
 34 35  1  0     0  0
 35 36  1  0     0  0
 36 37  1  0     0  0
 37 38  1  0     0  0
 38 39  1  0     0  0
M  END
> <standard_type>
IC50

> <# Confs.>
25

> <canonical_smiles>
O=C1C2=C(C(C(CCCCCCCCCCCCCCCCC)=O)=NN2)C(N1C3=CC=CC=C3C(OC)=O)=O

> <standard_relation>
=

> <predicted_activity_value>
5.920818753952375

> <actual_activity_value>
6.3872161432802645

> <Compound>
4

> <publication_ID>
nan

> <standard_units>
nM

> hash
7701221664575847203

$$$$
4_
XXILIB    08252103493D 0   0.00000     0.00000

 39 41  0     1  0            999 V2000
   -9.5717    2.7064    7.5550 O   0  0  0  0  0  2           0  0  0
  -10.5495   -0.0052    6.1287 O   0  0  0  0  0  2           0  0  0
   -6.1039   -0.0002    7.6561 O   0  0  0  0  0  2           0  0  0
   -4.1573    0.0000    5.1658 O   0  0  0  0  0  2           0  0  0
  -11.4017    2.6179    8.9499 O   0  0  0  0  0  2           0  0  0
   -8.4078    0.0014    3.7656 N   0  0  0  0  0  3           0  0  0
   -7.1486    0.0007    3.2664 N   0  0  0  0  0  3           0  0  0
   -8.4758    0.0038    7.3220 N   0  0  2  0  0  3           0  0  0
   -8.4151    0.0012    5.1111 C   0  0  0  0  0  4           0  0  0
   -6.3463    0.0008    4.3555 C   0  0  0  0  0  4           0  0  0
   -8.9361    0.0087    8.6638 C   0  0  0  0  0  4           0  0  0
   -7.1193    0.0020    5.5241 C   0  0  0  0  0  4           0  0  0
   -9.7448    1.0220    9.2191 C   0  0  0  0  0  4           0  0  0
   -8.5710   -1.0539    9.5146 C   0  0  0  0  0  4           0  0  0
  -10.1526    0.9805   10.5614 C   0  0  0  0  0  4           0  0  0
   -8.9804   -1.0970   10.8515 C   0  0  0  0  0  4           0  0  0
   -9.7686   -0.0794   11.3753 C   0  0  0  0  0  4           0  0  0
  -10.2074    2.2062    8.4700 C   0  0  0  0  0  4           0  0  0
   -9.3315    0.0000    6.2005 C   0  0  0  0  0  4           0  0  0
   -7.1075    0.0018    6.9625 C   0  0  0  0  0  4           0  0  0
   -4.9010   -0.0000    4.1838 C   0  0  0  0  0  4           0  0  0
  -11.9589    3.7640    8.2991 C   0  0  0  0  0  4           0  0  0
   -4.3028   -0.0000    2.7876 C   0  0  0  0  0  4           0  0  0
   -2.7795   -0.0000    2.7876 C   0  0  0  0  0  4           0  0  0
   -2.1537   -0.0000    1.3938 C   0  0  0  0  0  4           0  0  0
   -0.6258    0.0000    1.3938 C   0  0  0  0  0  4           0  0  0
    0.0000    0.0000    0.0000 C   0  0  0  0  0  4           0  0  0
    1.5279   -0.0000    0.0000 C   0  0  0  0  0  4           0  0  0
    2.1537    0.0000   -1.3938 C   0  0  0  0  0  4           0  0  0
    3.6815    0.0000   -1.3938 C   0  0  0  0  0  4           0  0  0
    4.3073    0.0000   -2.7876 C   0  0  0  0  0  4           0  0  0
    5.8352    0.0000   -2.7876 C   0  0  0  0  0  4           0  0  0
    6.4610   -1.2071   -2.0907 C   0  0  0  0  0  4           0  0  0
    7.9889   -1.2071   -2.0907 C   0  0  0  0  0  4           0  0  0
    8.6147   -2.4141   -1.3938 C   0  0  0  0  0  4           0  0  0
   10.1425   -2.4141   -1.3938 C   0  0  0  0  0  4           0  0  0
   10.7683   -3.6212   -0.6969 C   0  0  0  0  0  4           0  0  0
   12.2962   -3.6212   -0.6969 C   0  0  0  0  0  4           0  0  0
   12.8546   -4.8461    0.0103 C   0  0  0  0  0  4           0  0  0
  1 18  2  0     0  0
  2 19  2  0     0  0
  3 20  2  0     0  0
  4 21  2  0     0  0
  5 18  1  0     0  0
  5 22  1  0     0  0
  6  7  1  0     0  0
  6  9  1  0     0  0
  7 10  2  0     0  0
  8 11  1  0     0  0
  8 19  1  0     0  0
  8 20  1  0     0  0
  9 12  2  0     0  0
  9 19  1  0     0  0
 10 12  1  0     0  0
 10 21  1  0     0  0
 11 13  1  0     0  0
 11 14  2  0     0  0
 12 20  1  0     0  0
 13 15  2  0     0  0
 13 18  1  0     0  0
 14 16  1  0     0  0
 15 17  1  0     0  0
 16 17  2  0     0  0
 21 23  1  0     0  0
 23 24  1  0     0  0
 24 25  1  0     0  0
 25 26  1  0     0  0
 26 27  1  0     0  0
 27 28  1  0     0  0
 28 29  1  0     0  0
 29 30  1  0     0  0
 30 31  1  0     0  0
 31 32  1  0     0  0
 32 33  1  0     0  0
 33 34  1  0     0  0
 34 35  1  0     0  0
 35 36  1  0     0  0
 36 37  1  0     0  0
 37 38  1  0     0  0
 38 39  1  0     0  0
M  END
> <standard_type>
IC50

> <# Confs.>
25

> <canonical_smiles>
O=C1C2=C(C(C(CCCCCCCCCCCCCCCCC)=O)=NN2)C(N1C3=CC=CC=C3C(OC)=O)=O

> <standard_relation>
=

> <predicted_activity_value>
5.920818753952375

> <actual_activity_value>
6.3872161432802645

> <Compound>
4

> <publication_ID>
nan

> <standard_units>
nM

> hash
7701221664575847203

$$$$
4_
XXILIB    08252103493D 0   0.00000     0.00000

 39 41  0     1  0            999 V2000
   -9.5717    2.7064    7.5550 O   0  0  0  0  0  2           0  0  0
  -10.5495   -0.0052    6.1287 O   0  0  0  0  0  2           0  0  0
   -6.1039   -0.0002    7.6561 O   0  0  0  0  0  2           0  0  0
   -4.1573    0.0000    5.1658 O   0  0  0  0  0  2           0  0  0
  -11.4017    2.6179    8.9499 O   0  0  0  0  0  2           0  0  0
   -8.4078    0.0014    3.7656 N   0  0  0  0  0  3           0  0  0
   -7.1486    0.0007    3.2664 N   0  0  0  0  0  3           0  0  0
   -8.4758    0.0038    7.3220 N   0  0  2  0  0  3           0  0  0
   -8.4151    0.0012    5.1111 C   0  0  0  0  0  4           0  0  0
   -6.3463    0.0008    4.3555 C   0  0  0  0  0  4           0  0  0
   -8.9361    0.0087    8.6638 C   0  0  0  0  0  4           0  0  0
   -7.1193    0.0020    5.5241 C   0  0  0  0  0  4           0  0  0
   -9.7448    1.0220    9.2191 C   0  0  0  0  0  4           0  0  0
   -8.5710   -1.0539    9.5146 C   0  0  0  0  0  4           0  0  0
  -10.1526    0.9805   10.5614 C   0  0  0  0  0  4           0  0  0
   -8.9804   -1.0970   10.8515 C   0  0  0  0  0  4           0  0  0
   -9.7686   -0.0794   11.3753 C   0  0  0  0  0  4           0  0  0
  -10.2074    2.2062    8.4700 C   0  0  0  0  0  4           0  0  0
   -9.3315    0.0000    6.2005 C   0  0  0  0  0  4           0  0  0
   -7.1075    0.0018    6.9625 C   0  0  0  0  0  4           0  0  0
   -4.9010   -0.0000    4.1838 C   0  0  0  0  0  4           0  0  0
  -11.9589    3.7640    8.2991 C   0  0  0  0  0  4           0  0  0
   -4.3028   -0.0000    2.7876 C   0  0  0  0  0  4           0  0  0
   -2.7795   -0.0000    2.7876 C   0  0  0  0  0  4           0  0  0
   -2.1537   -0.0000    1.3938 C   0  0  0  0  0  4           0  0  0
   -0.6258    0.0000    1.3938 C   0  0  0  0  0  4           0  0  0
    0.0000    0.0000    0.0000 C   0  0  0  0  0  4           0  0  0
    1.5279   -0.0000    0.0000 C   0  0  0  0  0  4           0  0  0
    2.1537    0.0000   -1.3938 C   0  0  0  0  0  4           0  0  0
    3.6815    0.0000   -1.3938 C   0  0  0  0  0  4           0  0  0
    4.3073    0.0000   -2.7876 C   0  0  0  0  0  4           0  0  0
    5.8352    0.0000   -2.7876 C   0  0  0  0  0  4           0  0  0
    6.4610    0.0000   -4.1814 C   0  0  0  0  0  4           0  0  0
    6.0816    1.2071   -5.0378 C   0  0  0  0  0  4           0  0  0
    6.7074    1.2071   -6.4316 C   0  0  0  0  0  4           0  0  0
    6.3280    2.4141   -7.2879 C   0  0  0  0  0  4           0  0  0
    6.9538    2.4141   -8.6817 C   0  0  0  0  0  4           0  0  0
    6.5743    3.6212   -9.5381 C   0  0  0  0  0  4           0  0  0
    7.2284    3.5607  -10.9096 C   0  0  0  0  0  4           0  0  0
  1 18  2  0     0  0
  2 19  2  0     0  0
  3 20  2  0     0  0
  4 21  2  0     0  0
  5 18  1  0     0  0
  5 22  1  0     0  0
  6  7  1  0     0  0
  6  9  1  0     0  0
  7 10  2  0     0  0
  8 11  1  0     0  0
  8 19  1  0     0  0
  8 20  1  0     0  0
  9 12  2  0     0  0
  9 19  1  0     0  0
 10 12  1  0     0  0
 10 21  1  0     0  0
 11 13  1  0     0  0
 11 14  2  0     0  0
 12 20  1  0     0  0
 13 15  2  0     0  0
 13 18  1  0     0  0
 14 16  1  0     0  0
 15 17  1  0     0  0
 16 17  2  0     0  0
 21 23  1  0     0  0
 23 24  1  0     0  0
 24 25  1  0     0  0
 25 26  1  0     0  0
 26 27  1  0     0  0
 27 28  1  0     0  0
 28 29  1  0     0  0
 29 30  1  0     0  0
 30 31  1  0     0  0
 31 32  1  0     0  0
 32 33  1  0     0  0
 33 34  1  0     0  0
 34 35  1  0     0  0
 35 36  1  0     0  0
 36 37  1  0     0  0
 37 38  1  0     0  0
 38 39  1  0     0  0
M  END
> <standard_type>
IC50

> <# Confs.>
25

> <canonical_smiles>
O=C1C2=C(C(C(CCCCCCCCCCCCCCCCC)=O)=NN2)C(N1C3=CC=CC=C3C(OC)=O)=O

> <standard_relation>
=

> <predicted_activity_value>
5.920818753952375

> <actual_activity_value>
6.3872161432802645

> <Compound>
4

> <publication_ID>
nan

> <standard_units>
nM

> hash
7701221664575847203

$$$$
4_
XXILIB    08252103493D 0   0.00000     0.00000

 39 41  0     1  0            999 V2000
   -9.5717    2.7064    7.5550 O   0  0  0  0  0  2           0  0  0
  -10.5495   -0.0052    6.1287 O   0  0  0  0  0  2           0  0  0
   -6.1039   -0.0002    7.6561 O   0  0  0  0  0  2           0  0  0
   -4.1573    0.0000    5.1658 O   0  0  0  0  0  2           0  0  0
  -11.4017    2.6179    8.9499 O   0  0  0  0  0  2           0  0  0
   -8.4078    0.0014    3.7656 N   0  0  0  0  0  3           0  0  0
   -7.1486    0.0007    3.2664 N   0  0  0  0  0  3           0  0  0
   -8.4758    0.0038    7.3220 N   0  0  2  0  0  3           0  0  0
   -8.4151    0.0012    5.1111 C   0  0  0  0  0  4           0  0  0
   -6.3463    0.0008    4.3555 C   0  0  0  0  0  4           0  0  0
   -8.9361    0.0087    8.6638 C   0  0  0  0  0  4           0  0  0
   -7.1193    0.0020    5.5241 C   0  0  0  0  0  4           0  0  0
   -9.7448    1.0220    9.2191 C   0  0  0  0  0  4           0  0  0
   -8.5710   -1.0539    9.5146 C   0  0  0  0  0  4           0  0  0
  -10.1526    0.9805   10.5614 C   0  0  0  0  0  4           0  0  0
   -8.9804   -1.0970   10.8515 C   0  0  0  0  0  4           0  0  0
   -9.7686   -0.0794   11.3753 C   0  0  0  0  0  4           0  0  0
  -10.2074    2.2062    8.4700 C   0  0  0  0  0  4           0  0  0
   -9.3315    0.0000    6.2005 C   0  0  0  0  0  4           0  0  0
   -7.1075    0.0018    6.9625 C   0  0  0  0  0  4           0  0  0
   -4.9010   -0.0000    4.1838 C   0  0  0  0  0  4           0  0  0
  -11.9589    3.7640    8.2991 C   0  0  0  0  0  4           0  0  0
   -4.3028   -0.0000    2.7876 C   0  0  0  0  0  4           0  0  0
   -2.7795   -0.0000    2.7876 C   0  0  0  0  0  4           0  0  0
   -2.1537   -0.0000    1.3938 C   0  0  0  0  0  4           0  0  0
   -0.6258    0.0000    1.3938 C   0  0  0  0  0  4           0  0  0
    0.0000    0.0000    0.0000 C   0  0  0  0  0  4           0  0  0
    1.5279    0.0000    0.0000 C   0  0  0  0  0  4           0  0  0
    2.1537    0.0000   -1.3938 C   0  0  0  0  0  4           0  0  0
    3.6815    0.0000   -1.3938 C   0  0  0  0  0  4           0  0  0
    4.3073    0.0000   -2.7876 C   0  0  0  0  0  4           0  0  0
    5.8352    0.0000   -2.7876 C   0  0  0  0  0  4           0  0  0
    6.4610    0.0000   -4.1814 C   0  0  0  0  0  4           0  0  0
    7.9889    0.0000   -4.1814 C   0  0  0  0  0  4           0  0  0
    8.6147   -1.2071   -3.4845 C   0  0  0  0  0  4           0  0  0
   10.1425   -1.2071   -3.4845 C   0  0  0  0  0  4           0  0  0
   10.7683   -2.4141   -2.7876 C   0  0  0  0  0  4           0  0  0
   12.2962   -2.4141   -2.7876 C   0  0  0  0  0  4           0  0  0
   12.8546   -3.6390   -2.0804 C   0  0  0  0  0  4           0  0  0
  1 18  2  0     0  0
  2 19  2  0     0  0
  3 20  2  0     0  0
  4 21  2  0     0  0
  5 18  1  0     0  0
  5 22  1  0     0  0
  6  7  1  0     0  0
  6  9  1  0     0  0
  7 10  2  0     0  0
  8 11  1  0     0  0
  8 19  1  0     0  0
  8 20  1  0     0  0
  9 12  2  0     0  0
  9 19  1  0     0  0
 10 12  1  0     0  0
 10 21  1  0     0  0
 11 13  1  0     0  0
 11 14  2  0     0  0
 12 20  1  0     0  0
 13 15  2  0     0  0
 13 18  1  0     0  0
 14 16  1  0     0  0
 15 17  1  0     0  0
 16 17  2  0     0  0
 21 23  1  0     0  0
 23 24  1  0     0  0
 24 25  1  0     0  0
 25 26  1  0     0  0
 26 27  1  0     0  0
 27 28  1  0     0  0
 28 29  1  0     0  0
 29 30  1  0     0  0
 30 31  1  0     0  0
 31 32  1  0     0  0
 32 33  1  0     0  0
 33 34  1  0     0  0
 34 35  1  0     0  0
 35 36  1  0     0  0
 36 37  1  0     0  0
 37 38  1  0     0  0
 38 39  1  0     0  0
M  END
> <standard_type>
IC50

> <# Confs.>
25

> <canonical_smiles>
O=C1C2=C(C(C(CCCCCCCCCCCCCCCCC)=O)=NN2)C(N1C3=CC=CC=C3C(OC)=O)=O

> <standard_relation>
=

> <predicted_activity_value>
5.920818753952375

> <actual_activity_value>
6.3872161432802645

> <Compound>
4

> <publication_ID>
nan

> <standard_units>
nM

> hash
7701221664575847203

$$$$
4_
XXILIB    08252103493D 0   0.00000     0.00000

 39 41  0     1  0            999 V2000
   -9.5717    2.7064    7.5550 O   0  0  0  0  0  2           0  0  0
  -10.5495   -0.0052    6.1287 O   0  0  0  0  0  2           0  0  0
   -6.1039   -0.0002    7.6561 O   0  0  0  0  0  2           0  0  0
   -4.1573    0.0000    5.1658 O   0  0  0  0  0  2           0  0  0
  -11.4017    2.6179    8.9499 O   0  0  0  0  0  2           0  0  0
   -8.4078    0.0014    3.7656 N   0  0  0  0  0  3           0  0  0
   -7.1486    0.0007    3.2664 N   0  0  0  0  0  3           0  0  0
   -8.4758    0.0038    7.3220 N   0  0  2  0  0  3           0  0  0
   -8.4151    0.0012    5.1111 C   0  0  0  0  0  4           0  0  0
   -6.3463    0.0008    4.3555 C   0  0  0  0  0  4           0  0  0
   -8.9361    0.0087    8.6638 C   0  0  0  0  0  4           0  0  0
   -7.1193    0.0020    5.5241 C   0  0  0  0  0  4           0  0  0
   -9.7448    1.0220    9.2191 C   0  0  0  0  0  4           0  0  0
   -8.5710   -1.0539    9.5146 C   0  0  0  0  0  4           0  0  0
  -10.1526    0.9805   10.5614 C   0  0  0  0  0  4           0  0  0
   -8.9804   -1.0970   10.8515 C   0  0  0  0  0  4           0  0  0
   -9.7686   -0.0794   11.3753 C   0  0  0  0  0  4           0  0  0
  -10.2074    2.2062    8.4700 C   0  0  0  0  0  4           0  0  0
   -9.3315    0.0000    6.2005 C   0  0  0  0  0  4           0  0  0
   -7.1075    0.0018    6.9625 C   0  0  0  0  0  4           0  0  0
   -4.9010   -0.0000    4.1838 C   0  0  0  0  0  4           0  0  0
  -11.9589    3.7640    8.2991 C   0  0  0  0  0  4           0  0  0
   -4.3028   -0.0000    2.7876 C   0  0  0  0  0  4           0  0  0
   -2.7795   -0.0000    2.7876 C   0  0  0  0  0  4           0  0  0
   -2.1537   -0.0000    1.3938 C   0  0  0  0  0  4           0  0  0
   -0.6258    0.0000    1.3938 C   0  0  0  0  0  4           0  0  0
    0.0000    0.0000    0.0000 C   0  0  0  0  0  4           0  0  0
    1.5279    0.0000    0.0000 C   0  0  0  0  0  4           0  0  0
    2.1537    0.0000   -1.3938 C   0  0  0  0  0  4           0  0  0
    3.6815    0.0000   -1.3938 C   0  0  0  0  0  4           0  0  0
    4.3073    0.0000   -2.7876 C   0  0  0  0  0  4           0  0  0
    5.8352    0.0000   -2.7876 C   0  0  0  0  0  4           0  0  0
    6.4610    0.0000   -4.1814 C   0  0  0  0  0  4           0  0  0
    7.9889    0.0000   -4.1814 C   0  0  0  0  0  4           0  0  0
    8.6147    0.0000   -5.5752 C   0  0  0  0  0  4           0  0  0
    8.2352    1.2071   -6.4316 C   0  0  0  0  0  4           0  0  0
    8.8611    1.2071   -7.8254 C   0  0  0  0  0  4           0  0  0
    8.4816    2.4141   -8.6817 C   0  0  0  0  0  4           0  0  0
    9.1357    2.3536  -10.0532 C   0  0  0  0  0  4           0  0  0
  1 18  2  0     0  0
  2 19  2  0     0  0
  3 20  2  0     0  0
  4 21  2  0     0  0
  5 18  1  0     0  0
  5 22  1  0     0  0
  6  7  1  0     0  0
  6  9  1  0     0  0
  7 10  2  0     0  0
  8 11  1  0     0  0
  8 19  1  0     0  0
  8 20  1  0     0  0
  9 12  2  0     0  0
  9 19  1  0     0  0
 10 12  1  0     0  0
 10 21  1  0     0  0
 11 13  1  0     0  0
 11 14  2  0     0  0
 12 20  1  0     0  0
 13 15  2  0     0  0
 13 18  1  0     0  0
 14 16  1  0     0  0
 15 17  1  0     0  0
 16 17  2  0     0  0
 21 23  1  0     0  0
 23 24  1  0     0  0
 24 25  1  0     0  0
 25 26  1  0     0  0
 26 27  1  0     0  0
 27 28  1  0     0  0
 28 29  1  0     0  0
 29 30  1  0     0  0
 30 31  1  0     0  0
 31 32  1  0     0  0
 32 33  1  0     0  0
 33 34  1  0     0  0
 34 35  1  0     0  0
 35 36  1  0     0  0
 36 37  1  0     0  0
 37 38  1  0     0  0
 38 39  1  0     0  0
M  END
> <standard_type>
IC50

> <# Confs.>
25

> <canonical_smiles>
O=C1C2=C(C(C(CCCCCCCCCCCCCCCCC)=O)=NN2)C(N1C3=CC=CC=C3C(OC)=O)=O

> <standard_relation>
=

> <predicted_activity_value>
5.920818753952375

> <actual_activity_value>
6.3872161432802645

> <Compound>
4

> <publication_ID>
nan

> <standard_units>
nM

> hash
7701221664575847203

$$$$
4_
XXILIB    08252103493D 0   0.00000     0.00000

 39 41  0     1  0            999 V2000
   -9.5717    2.7064    7.5550 O   0  0  0  0  0  2           0  0  0
  -10.5495   -0.0052    6.1287 O   0  0  0  0  0  2           0  0  0
   -6.1039   -0.0002    7.6561 O   0  0  0  0  0  2           0  0  0
   -4.1573    0.0000    5.1658 O   0  0  0  0  0  2           0  0  0
  -11.4017    2.6179    8.9499 O   0  0  0  0  0  2           0  0  0
   -8.4078    0.0014    3.7656 N   0  0  0  0  0  3           0  0  0
   -7.1486    0.0007    3.2664 N   0  0  0  0  0  3           0  0  0
   -8.4758    0.0038    7.3220 N   0  0  2  0  0  3           0  0  0
   -8.4151    0.0012    5.1111 C   0  0  0  0  0  4           0  0  0
   -6.3463    0.0008    4.3555 C   0  0  0  0  0  4           0  0  0
   -8.9361    0.0087    8.6638 C   0  0  0  0  0  4           0  0  0
   -7.1193    0.0020    5.5241 C   0  0  0  0  0  4           0  0  0
   -9.7448    1.0220    9.2191 C   0  0  0  0  0  4           0  0  0
   -8.5710   -1.0539    9.5146 C   0  0  0  0  0  4           0  0  0
  -10.1526    0.9805   10.5614 C   0  0  0  0  0  4           0  0  0
   -8.9804   -1.0970   10.8515 C   0  0  0  0  0  4           0  0  0
   -9.7686   -0.0794   11.3753 C   0  0  0  0  0  4           0  0  0
  -10.2074    2.2062    8.4700 C   0  0  0  0  0  4           0  0  0
   -9.3315    0.0000    6.2005 C   0  0  0  0  0  4           0  0  0
   -7.1075    0.0018    6.9625 C   0  0  0  0  0  4           0  0  0
   -4.9010   -0.0000    4.1838 C   0  0  0  0  0  4           0  0  0
  -11.9589    3.7640    8.2991 C   0  0  0  0  0  4           0  0  0
   -4.3028   -0.0000    2.7876 C   0  0  0  0  0  4           0  0  0
   -2.7795   -0.0000    2.7876 C   0  0  0  0  0  4           0  0  0
   -2.1537   -0.0000    1.3938 C   0  0  0  0  0  4           0  0  0
   -0.6258    0.0000    1.3938 C   0  0  0  0  0  4           0  0  0
    0.0000    0.0000    0.0000 C   0  0  0  0  0  4           0  0  0
    1.5279    0.0000    0.0000 C   0  0  0  0  0  4           0  0  0
    2.1537    0.0000   -1.3938 C   0  0  0  0  0  4           0  0  0
    3.6815    0.0000   -1.3938 C   0  0  0  0  0  4           0  0  0
    4.3073    0.0000   -2.7876 C   0  0  0  0  0  4           0  0  0
    5.8352    0.0000   -2.7876 C   0  0  0  0  0  4           0  0  0
    6.4610    0.0000   -4.1814 C   0  0  0  0  0  4           0  0  0
    7.9889    0.0000   -4.1814 C   0  0  0  0  0  4           0  0  0
    8.6147    0.0000   -5.5752 C   0  0  0  0  0  4           0  0  0
   10.1425    0.0000   -5.5752 C   0  0  0  0  0  4           0  0  0
   10.7683   -1.2071   -4.8783 C   0  0  0  0  0  4           0  0  0
   12.2962   -1.2071   -4.8783 C   0  0  0  0  0  4           0  0  0
   12.8546   -2.4320   -4.1711 C   0  0  0  0  0  4           0  0  0
  1 18  2  0     0  0
  2 19  2  0     0  0
  3 20  2  0     0  0
  4 21  2  0     0  0
  5 18  1  0     0  0
  5 22  1  0     0  0
  6  7  1  0     0  0
  6  9  1  0     0  0
  7 10  2  0     0  0
  8 11  1  0     0  0
  8 19  1  0     0  0
  8 20  1  0     0  0
  9 12  2  0     0  0
  9 19  1  0     0  0
 10 12  1  0     0  0
 10 21  1  0     0  0
 11 13  1  0     0  0
 11 14  2  0     0  0
 12 20  1  0     0  0
 13 15  2  0     0  0
 13 18  1  0     0  0
 14 16  1  0     0  0
 15 17  1  0     0  0
 16 17  2  0     0  0
 21 23  1  0     0  0
 23 24  1  0     0  0
 24 25  1  0     0  0
 25 26  1  0     0  0
 26 27  1  0     0  0
 27 28  1  0     0  0
 28 29  1  0     0  0
 29 30  1  0     0  0
 30 31  1  0     0  0
 31 32  1  0     0  0
 32 33  1  0     0  0
 33 34  1  0     0  0
 34 35  1  0     0  0
 35 36  1  0     0  0
 36 37  1  0     0  0
 37 38  1  0     0  0
 38 39  1  0     0  0
M  END
> <standard_type>
IC50

> <# Confs.>
25

> <canonical_smiles>
O=C1C2=C(C(C(CCCCCCCCCCCCCCCCC)=O)=NN2)C(N1C3=CC=CC=C3C(OC)=O)=O

> <standard_relation>
=

> <predicted_activity_value>
5.920818753952375

> <actual_activity_value>
6.3872161432802645

> <Compound>
4

> <publication_ID>
nan

> <standard_units>
nM

> hash
7701221664575847203

$$$$
4_
XXILIB    08252103493D 0   0.00000     0.00000

 39 41  0     1  0            999 V2000
  -11.2706   -2.7500    8.7283 O   0  0  0  0  0  2           0  0  0
  -10.5495   -0.0052    6.1287 O   0  0  0  0  0  2           0  0  0
   -6.1039   -0.0002    7.6561 O   0  0  0  0  0  2           0  0  0
   -4.1573    0.0000    5.1658 O   0  0  0  0  0  2           0  0  0
   -9.3202   -2.5156    7.5270 O   0  0  0  0  0  2           0  0  0
   -8.4078    0.0014    3.7656 N   0  0  0  0  0  3           0  0  0
   -7.1486    0.0007    3.2664 N   0  0  0  0  0  3           0  0  0
   -8.4758    0.0038    7.3220 N   0  0  2  0  0  3           0  0  0
   -8.4151    0.0012    5.1111 C   0  0  0  0  0  4           0  0  0
   -6.3463    0.0008    4.3555 C   0  0  0  0  0  4           0  0  0
   -8.9361    0.0087    8.6638 C   0  0  0  0  0  4           0  0  0
   -7.1193    0.0020    5.5241 C   0  0  0  0  0  4           0  0  0
   -9.7452   -1.0003    9.2262 C   0  0  0  0  0  4           0  0  0
   -8.5780    1.0817    9.5045 C   0  0  0  0  0  4           0  0  0
  -10.1857   -0.9291   10.5569 C   0  0  0  0  0  4           0  0  0
   -9.0141    1.1508   10.8318 C   0  0  0  0  0  4           0  0  0
   -9.8193    0.1474   11.3570 C   0  0  0  0  0  4           0  0  0
  -10.2163   -2.1846    8.4828 C   0  0  0  0  0  4           0  0  0
   -9.3315    0.0000    6.2005 C   0  0  0  0  0  4           0  0  0
   -7.1075    0.0018    6.9625 C   0  0  0  0  0  4           0  0  0
   -4.9010   -0.0000    4.1838 C   0  0  0  0  0  4           0  0  0
   -9.6679   -3.6535    6.7321 C   0  0  0  0  0  4           0  0  0
   -4.3028   -0.0000    2.7876 C   0  0  0  0  0  4           0  0  0
   -2.7795   -0.0000    2.7876 C   0  0  0  0  0  4           0  0  0
   -2.1537   -0.0000    1.3938 C   0  0  0  0  0  4           0  0  0
   -0.6258    0.0000    1.3938 C   0  0  0  0  0  4           0  0  0
    0.0000    0.0000    0.0000 C   0  0  0  0  0  4           0  0  0
    1.5279    0.0000    0.0000 C   0  0  0  0  0  4           0  0  0
    2.1537    0.0000   -1.3938 C   0  0  0  0  0  4           0  0  0
    3.6815    0.0000   -1.3938 C   0  0  0  0  0  4           0  0  0
    4.3073    0.0000   -2.7876 C   0  0  0  0  0  4           0  0  0
    5.8352    0.0000   -2.7876 C   0  0  0  0  0  4           0  0  0
    6.4610    0.0000   -4.1814 C   0  0  0  0  0  4           0  0  0
    7.9889    0.0000   -4.1814 C   0  0  0  0  0  4           0  0  0
    8.6147    0.0000   -5.5752 C   0  0  0  0  0  4           0  0  0
   10.1425    0.0000   -5.5752 C   0  0  0  0  0  4           0  0  0
   10.7683    0.0000   -6.9690 C   0  0  0  0  0  4           0  0  0
   12.2962    0.0000   -6.9690 C   0  0  0  0  0  4           0  0  0
   12.8546    0.0000   -8.3834 C   0  0  0  0  0  4           0  0  0
  1 18  2  0     0  0
  2 19  2  0     0  0
  3 20  2  0     0  0
  4 21  2  0     0  0
  5 18  1  0     0  0
  5 22  1  0     0  0
  6  7  1  0     0  0
  6  9  1  0     0  0
  7 10  2  0     0  0
  8 11  1  0     0  0
  8 19  1  0     0  0
  8 20  1  0     0  0
  9 12  2  0     0  0
  9 19  1  0     0  0
 10 12  1  0     0  0
 10 21  1  0     0  0
 11 13  1  0     0  0
 11 14  2  0     0  0
 12 20  1  0     0  0
 13 15  2  0     0  0
 13 18  1  0     0  0
 14 16  1  0     0  0
 15 17  1  0     0  0
 16 17  2  0     0  0
 21 23  1  0     0  0
 23 24  1  0     0  0
 24 25  1  0     0  0
 25 26  1  0     0  0
 26 27  1  0     0  0
 27 28  1  0     0  0
 28 29  1  0     0  0
 29 30  1  0     0  0
 30 31  1  0     0  0
 31 32  1  0     0  0
 32 33  1  0     0  0
 33 34  1  0     0  0
 34 35  1  0     0  0
 35 36  1  0     0  0
 36 37  1  0     0  0
 37 38  1  0     0  0
 38 39  1  0     0  0
M  END
> <standard_type>
IC50

> <# Confs.>
25

> <canonical_smiles>
O=C1C2=C(C(C(CCCCCCCCCCCCCCCCC)=O)=NN2)C(N1C3=CC=CC=C3C(OC)=O)=O

> <standard_relation>
=

> <predicted_activity_value>
5.920818753952375

> <actual_activity_value>
6.3872161432802645

> <Compound>
4

> <publication_ID>
nan

> <standard_units>
nM

> hash
7701221664575847203

$$$$
2_
XXILIB    08252103493D 0   0.00000     0.00000

 35 37  0     1  0            999 V2000
  -10.6109   -0.1180    8.3937 O   0  0  0  0  0  2           0  0  0
  -10.0996   -0.0266    3.7214 O   0  0  0  0  0  2           0  0  0
   -7.0135   -0.0000    3.0166 O   0  0  0  0  0  2           0  0  0
   -7.5597   -0.0400    7.4622 N   0  0  0  0  0  3           0  0  0
   -6.5725   -0.0133    6.5348 N   0  0  0  0  0  3           0  0  0
  -10.8067   -0.0845    6.0092 N   0  0  1  0  0  3           0  0  0
   -8.7805   -0.0554    6.8966 C   0  0  0  0  0  4           0  0  0
   -7.2171   -0.0136    5.3457 C   0  0  0  0  0  4           0  0  0
  -12.2190   -0.1158    5.8534 C   0  0  0  0  0  4           0  0  0
   -8.6031   -0.0335    5.5483 C   0  0  0  0  0  4           0  0  0
  -13.0638    0.4512    6.8225 C   0  0  0  0  0  4           0  0  0
  -12.8054   -0.7148    4.7260 C   0  0  0  0  0  4           0  0  0
  -14.4527    0.4202    6.6650 C   0  0  0  0  0  4           0  0  0
  -14.1945   -0.7427    4.5718 C   0  0  0  0  0  4           0  0  0
  -15.0173   -0.1747    5.5401 C   0  0  0  0  0  4           0  0  0
  -10.1564   -0.0898    7.2613 C   0  0  0  0  0  4           0  0  0
   -9.8991   -0.0463    4.9248 C   0  0  0  0  0  4           0  0  0
   -6.4477   -0.0000    4.1097 C   0  0  0  0  0  4           0  0  0
   -4.9357    0.0000    4.1792 C   0  0  0  0  0  4           0  0  0
   -4.3088   -0.0000    2.7861 C   0  0  0  0  0  4           0  0  0
   -2.7812   -0.0000    2.7861 C   0  0  0  0  0  4           0  0  0
   -2.1544   -0.0000    1.3930 C   0  0  0  0  0  4           0  0  0
   -0.6268    0.0000    1.3930 C   0  0  0  0  0  4           0  0  0
    0.0000   -0.0000    0.0000 C   0  0  0  0  0  4           0  0  0
    1.5277    0.0000    0.0000 C   0  0  0  0  0  4           0  0  0
    2.1546    0.0000   -1.3930 C   0  0  0  0  0  4           0  0  0
    3.6821    0.0000   -1.3930 C   0  0  0  0  0  4           0  0  0
    4.3089    0.0000   -2.7861 C   0  0  0  0  0  4           0  0  0
    5.8365    0.0000   -2.7861 C   0  0  0  0  0  4           0  0  0
    6.4633    0.0000   -4.1791 C   0  0  0  0  0  4           0  0  0
    7.9909    0.0000   -4.1791 C   0  0  0  0  0  4           0  0  0
    8.6177    0.0000   -5.5721 C   0  0  0  0  0  4           0  0  0
   10.1453   -0.0000   -5.5721 C   0  0  0  0  0  4           0  0  0
   10.7721    0.0000   -6.9651 C   0  0  0  0  0  4           0  0  0
   12.2948   -0.0000   -6.9080 C   0  0  0  0  0  4           0  0  0
  1 16  2  0     0  0
  2 17  2  0     0  0
  3 18  2  0     0  0
  4  5  1  0     0  0
  4  7  1  0     0  0
  5  8  2  0     0  0
  6  9  1  0     0  0
  6 16  1  0     0  0
  6 17  1  0     0  0
  7 10  2  0     0  0
  7 16  1  0     0  0
  8 10  1  0     0  0
  8 18  1  0     0  0
  9 11  2  0     0  0
  9 12  1  0     0  0
 10 17  1  0     0  0
 11 13  1  0     0  0
 12 14  2  0     0  0
 13 15  2  0     0  0
 14 15  1  0     0  0
 18 19  1  0     0  0
 19 20  1  0     0  0
 20 21  1  0     0  0
 21 22  1  0     0  0
 22 23  1  0     0  0
 23 24  1  0     0  0
 24 25  1  0     0  0
 25 26  1  0     0  0
 26 27  1  0     0  0
 27 28  1  0     0  0
 28 29  1  0     0  0
 29 30  1  0     0  0
 30 31  1  0     0  0
 31 32  1  0     0  0
 32 33  1  0     0  0
 33 34  1  0     0  0
 34 35  1  0     0  0
M  END
> <standard_type>
IC50

> <# Confs.>
25

> <canonical_smiles>
O=C1C2=C(C(C(CCCCCCCCCCCCCCCCC)=O)=NN2)C(N1C3=CC=CC=C3)=O

> <standard_relation>
=

> <predicted_activity_value>
6.5376020021010435

> <actual_activity_value>
6.638272163982407

> <Compound>
2

> <publication_ID>
nan

> <standard_units>
nM

> hash
518409665345276232

$$$$
2_
XXILIB    08252103493D 0   0.00000     0.00000

 35 37  0     1  0            999 V2000
  -10.4001   -4.4707    3.8098 O   0  0  0  0  0  2           0  0  0
  -10.1085    0.2201    3.9147 O   0  0  0  0  0  2           0  0  0
   -7.0625    1.0659    4.0814 O   0  0  0  0  0  2           0  0  0
   -7.4017   -3.4001    4.0258 N   0  0  0  0  0  3           0  0  0
   -6.4604   -2.4283    4.0958 N   0  0  0  0  0  3           0  0  0
  -10.7065   -2.0977    3.8292 N   0  0  1  0  0  3           0  0  0
   -8.6452   -2.8911    3.9532 C   0  0  0  0  0  4           0  0  0
   -7.1581   -1.2701    4.0634 C   0  0  0  0  0  4           0  0  0
  -12.1215   -2.0070    3.7329 C   0  0  0  0  0  4           0  0  0
   -8.5310   -1.5361    3.9804 C   0  0  0  0  0  4           0  0  0
  -12.9460   -3.0138    4.2625 C   0  0  0  0  0  4           0  0  0
  -12.7309   -0.9077    3.1052 C   0  0  0  0  0  4           0  0  0
  -14.3379   -2.9203    4.1675 C   0  0  0  0  0  4           0  0  0
  -14.1228   -0.8175    3.0132 C   0  0  0  0  0  4           0  0  0
  -14.9255   -1.8226    3.5449 C   0  0  0  0  0  4           0  0  0
   -9.9998   -3.3187    3.8565 C   0  0  0  0  0  4           0  0  0
   -9.8523   -0.9728    3.9068 C   0  0  0  0  0  4           0  0  0
   -6.4477   -0.0000    4.1097 C   0  0  0  0  0  4           0  0  0
   -4.9357    0.0000    4.1792 C   0  0  0  0  0  4           0  0  0
   -4.3088   -0.0000    2.7861 C   0  0  0  0  0  4           0  0  0
   -2.7812   -0.0000    2.7861 C   0  0  0  0  0  4           0  0  0
   -2.1544   -0.0000    1.3930 C   0  0  0  0  0  4           0  0  0
   -0.6268    0.0000    1.3930 C   0  0  0  0  0  4           0  0  0
    0.0000   -0.0000    0.0000 C   0  0  0  0  0  4           0  0  0
    1.5277    0.0000    0.0000 C   0  0  0  0  0  4           0  0  0
    2.1546    0.0000   -1.3930 C   0  0  0  0  0  4           0  0  0
    3.6821    0.0000   -1.3930 C   0  0  0  0  0  4           0  0  0
    4.3089    0.0000   -2.7861 C   0  0  0  0  0  4           0  0  0
    5.8365    0.0000   -2.7861 C   0  0  0  0  0  4           0  0  0
    6.4633    0.0000   -4.1791 C   0  0  0  0  0  4           0  0  0
    7.9909    0.0000   -4.1791 C   0  0  0  0  0  4           0  0  0
    8.6177    0.0000   -5.5721 C   0  0  0  0  0  4           0  0  0
   10.1453   -0.0000   -5.5721 C   0  0  0  0  0  4           0  0  0
   10.7721    0.0000   -6.9651 C   0  0  0  0  0  4           0  0  0
   12.2948   -0.0000   -6.9080 C   0  0  0  0  0  4           0  0  0
  1 16  2  0     0  0
  2 17  2  0     0  0
  3 18  2  0     0  0
  4  5  1  0     0  0
  4  7  1  0     0  0
  5  8  2  0     0  0
  6  9  1  0     0  0
  6 16  1  0     0  0
  6 17  1  0     0  0
  7 10  2  0     0  0
  7 16  1  0     0  0
  8 10  1  0     0  0
  8 18  1  0     0  0
  9 11  2  0     0  0
  9 12  1  0     0  0
 10 17  1  0     0  0
 11 13  1  0     0  0
 12 14  2  0     0  0
 13 15  2  0     0  0
 14 15  1  0     0  0
 18 19  1  0     0  0
 19 20  1  0     0  0
 20 21  1  0     0  0
 21 22  1  0     0  0
 22 23  1  0     0  0
 23 24  1  0     0  0
 24 25  1  0     0  0
 25 26  1  0     0  0
 26 27  1  0     0  0
 27 28  1  0     0  0
 28 29  1  0     0  0
 29 30  1  0     0  0
 30 31  1  0     0  0
 31 32  1  0     0  0
 32 33  1  0     0  0
 33 34  1  0     0  0
 34 35  1  0     0  0
M  END
> <standard_type>
IC50

> <# Confs.>
25

> <canonical_smiles>
O=C1C2=C(C(C(CCCCCCCCCCCCCCCCC)=O)=NN2)C(N1C3=CC=CC=C3)=O

> <standard_relation>
=

> <predicted_activity_value>
6.5376020021010435

> <actual_activity_value>
6.638272163982407

> <Compound>
2

> <publication_ID>
nan

> <standard_units>
nM

> hash
518409665345276232

$$$$
2_
XXILIB    08252103493D 0   0.00000     0.00000

 35 37  0     1  0            999 V2000
   -6.9070    6.6822    5.3816 O   0  0  0  0  0  2           0  0  0
   -3.3335    4.0692    6.9633 O   0  0  0  0  0  2           0  0  0
   -3.5127    1.1814    5.6787 O   0  0  0  0  0  2           0  0  0
   -6.9246    3.7021    4.2405 N   0  0  0  0  0  3           0  0  0
   -6.4293    2.4479    4.1097 N   0  0  0  0  0  3           0  0  0
   -4.9681    5.7308    6.4114 N   0  0  1  0  0  3           0  0  0
   -6.1743    4.4555    5.0650 C   0  0  0  0  0  4           0  0  0
   -5.3238    2.4314    4.8888 C   0  0  0  0  0  4           0  0  0
   -4.4923    6.8371    7.1659 C   0  0  0  0  0  4           0  0  0
   -5.1476    3.6781    5.5028 C   0  0  0  0  0  4           0  0  0
   -5.3807    7.8035    7.6668 C   0  0  0  0  0  4           0  0  0
   -3.1210    6.9918    7.4294 C   0  0  0  0  0  4           0  0  0
   -4.9091    8.8898    8.4102 C   0  0  0  0  0  4           0  0  0
   -2.6537    8.0787    8.1741 C   0  0  0  0  0  4           0  0  0
   -3.5473    9.0262    8.6649 C   0  0  0  0  0  4           0  0  0
   -6.1225    5.7735    5.6012 C   0  0  0  0  0  4           0  0  0
   -4.3345    4.4661    6.3897 C   0  0  0  0  0  4           0  0  0
   -4.5226    1.2188    4.9760 C   0  0  0  0  0  4           0  0  0
   -4.9357    0.0000    4.1792 C   0  0  0  0  0  4           0  0  0
   -4.3088    0.0000    2.7861 C   0  0  0  0  0  4           0  0  0
   -2.7812    0.0000    2.7861 C   0  0  0  0  0  4           0  0  0
   -2.1544    0.0000    1.3930 C   0  0  0  0  0  4           0  0  0
   -0.6268    0.0000    1.3930 C   0  0  0  0  0  4           0  0  0
    0.0000    0.0000    0.0000 C   0  0  0  0  0  4           0  0  0
    1.5277    0.0000    0.0000 C   0  0  0  0  0  4           0  0  0
    2.1546    0.0000   -1.3930 C   0  0  0  0  0  4           0  0  0
    3.6821    0.0000   -1.3930 C   0  0  0  0  0  4           0  0  0
    4.3089    0.0000   -2.7861 C   0  0  0  0  0  4           0  0  0
    5.8365    0.0000   -2.7861 C   0  0  0  0  0  4           0  0  0
    6.4633    0.0000   -4.1791 C   0  0  0  0  0  4           0  0  0
    7.9909    0.0000   -4.1791 C   0  0  0  0  0  4           0  0  0
    8.6177    0.0000   -5.5721 C   0  0  0  0  0  4           0  0  0
   10.1453   -0.0000   -5.5721 C   0  0  0  0  0  4           0  0  0
   10.7721    0.0000   -6.9651 C   0  0  0  0  0  4           0  0  0
   12.2948   -0.0000   -6.9080 C   0  0  0  0  0  4           0  0  0
  1 16  2  0     0  0
  2 17  2  0     0  0
  3 18  2  0     0  0
  4  5  1  0     0  0
  4  7  1  0     0  0
  5  8  2  0     0  0
  6  9  1  0     0  0
  6 16  1  0     0  0
  6 17  1  0     0  0
  7 10  2  0     0  0
  7 16  1  0     0  0
  8 10  1  0     0  0
  8 18  1  0     0  0
  9 11  2  0     0  0
  9 12  1  0     0  0
 10 17  1  0     0  0
 11 13  1  0     0  0
 12 14  2  0     0  0
 13 15  2  0     0  0
 14 15  1  0     0  0
 18 19  1  0     0  0
 19 20  1  0     0  0
 20 21  1  0     0  0
 21 22  1  0     0  0
 22 23  1  0     0  0
 23 24  1  0     0  0
 24 25  1  0     0  0
 25 26  1  0     0  0
 26 27  1  0     0  0
 27 28  1  0     0  0
 28 29  1  0     0  0
 29 30  1  0     0  0
 30 31  1  0     0  0
 31 32  1  0     0  0
 32 33  1  0     0  0
 33 34  1  0     0  0
 34 35  1  0     0  0
M  END
> <standard_type>
IC50

> <# Confs.>
25

> <canonical_smiles>
O=C1C2=C(C(C(CCCCCCCCCCCCCCCCC)=O)=NN2)C(N1C3=CC=CC=C3)=O

> <standard_relation>
=

> <predicted_activity_value>
6.5376020021010435

> <actual_activity_value>
6.638272163982407

> <Compound>
2

> <publication_ID>
nan

> <standard_units>
nM

> hash
518409665345276232

$$$$
2_
XXILIB    08252103493D 0   0.00000     0.00000

 35 37  0     1  0            999 V2000
  -10.6109    4.9153    0.0845 O   0  0  0  0  0  2           0  0  0
  -10.0996    0.8233    2.3414 O   0  0  0  0  0  2           0  0  0
   -7.0135    0.1997    2.6708 O   0  0  0  0  0  2           0  0  0
   -7.5597    4.0697    0.4826 N   0  0  0  0  0  3           0  0  0
   -6.5725    3.2532    0.9232 N   0  0  0  0  0  3           0  0  0
  -10.8067    2.8336    1.2477 N   0  0  1  0  0  3           0  0  0
   -8.7805    3.5875    0.7788 C   0  0  0  0  0  4           0  0  0
   -7.2171    2.2235    1.5180 C   0  0  0  0  0  4           0  0  0
  -12.2190    2.7143    1.3526 C   0  0  0  0  0  4           0  0  0
   -8.6031    2.4089    1.4339 C   0  0  0  0  0  4           0  0  0
  -13.0638    3.2700    0.3771 C   0  0  0  0  0  4           0  0  0
  -12.8054    2.0375    2.4351 C   0  0  0  0  0  4           0  0  0
  -14.4527    3.1492    0.4827 C   0  0  0  0  0  4           0  0  0
  -14.1945    1.9179    2.5364 C   0  0  0  0  0  4           0  0  0
  -15.0173    2.4724    1.5603 C   0  0  0  0  0  4           0  0  0
  -10.1564    3.9206    0.6262 C   0  0  0  0  0  4           0  0  0
   -9.8991    1.8753    1.7568 C   0  0  0  0  0  4           0  0  0
   -6.4477    1.1463    2.1242 C   0  0  0  0  0  4           0  0  0
   -4.9357    1.2065    2.0895 C   0  0  0  0  0  4           0  0  0
   -4.3088   -0.0000    2.7861 C   0  0  0  0  0  4           0  0  0
   -2.7812    0.0000    2.7861 C   0  0  0  0  0  4           0  0  0
   -2.1544   -0.0000    1.3930 C   0  0  0  0  0  4           0  0  0
   -0.6268    0.0000    1.3930 C   0  0  0  0  0  4           0  0  0
    0.0000    0.0000    0.0000 C   0  0  0  0  0  4           0  0  0
    1.5277    0.0000    0.0000 C   0  0  0  0  0  4           0  0  0
    2.1546    0.0000   -1.3930 C   0  0  0  0  0  4           0  0  0
    3.6821    0.0000   -1.3930 C   0  0  0  0  0  4           0  0  0
    4.3089    0.0000   -2.7861 C   0  0  0  0  0  4           0  0  0
    5.8365    0.0000   -2.7861 C   0  0  0  0  0  4           0  0  0
    6.4633    0.0000   -4.1791 C   0  0  0  0  0  4           0  0  0
    7.9909    0.0000   -4.1791 C   0  0  0  0  0  4           0  0  0
    8.6177    0.0000   -5.5721 C   0  0  0  0  0  4           0  0  0
   10.1453   -0.0000   -5.5721 C   0  0  0  0  0  4           0  0  0
   10.7721    0.0000   -6.9651 C   0  0  0  0  0  4           0  0  0
   12.2948   -0.0000   -6.9080 C   0  0  0  0  0  4           0  0  0
  1 16  2  0     0  0
  2 17  2  0     0  0
  3 18  2  0     0  0
  4  5  1  0     0  0
  4  7  1  0     0  0
  5  8  2  0     0  0
  6  9  1  0     0  0
  6 16  1  0     0  0
  6 17  1  0     0  0
  7 10  2  0     0  0
  7 16  1  0     0  0
  8 10  1  0     0  0
  8 18  1  0     0  0
  9 11  2  0     0  0
  9 12  1  0     0  0
 10 17  1  0     0  0
 11 13  1  0     0  0
 12 14  2  0     0  0
 13 15  2  0     0  0
 14 15  1  0     0  0
 18 19  1  0     0  0
 19 20  1  0     0  0
 20 21  1  0     0  0
 21 22  1  0     0  0
 22 23  1  0     0  0
 23 24  1  0     0  0
 24 25  1  0     0  0
 25 26  1  0     0  0
 26 27  1  0     0  0
 27 28  1  0     0  0
 28 29  1  0     0  0
 29 30  1  0     0  0
 30 31  1  0     0  0
 31 32  1  0     0  0
 32 33  1  0     0  0
 33 34  1  0     0  0
 34 35  1  0     0  0
M  END
> <standard_type>
IC50

> <# Confs.>
25

> <canonical_smiles>
O=C1C2=C(C(C(CCCCCCCCCCCCCCCCC)=O)=NN2)C(N1C3=CC=CC=C3)=O

> <standard_relation>
=

> <predicted_activity_value>
6.5376020021010435

> <actual_activity_value>
6.638272163982407

> <Compound>
2

> <publication_ID>
nan

> <standard_units>
nM

> hash
518409665345276232

$$$$
2_
XXILIB    08252103493D 0   0.00000     0.00000

 35 37  0     1  0            999 V2000
  -10.5807   -2.3376    7.7364 O   0  0  0  0  0  2           0  0  0
  -10.1004    0.0870    3.7376 O   0  0  0  0  0  2           0  0  0
   -7.0201    0.5330    3.1593 O   0  0  0  0  0  2           0  0  0
   -7.5379   -1.7347    6.9872 N   0  0  0  0  0  3           0  0  0
   -6.5573   -1.2257    6.2032 N   0  0  0  0  0  3           0  0  0
  -10.7919   -1.1221    5.6862 N   0  0  1  0  0  3           0  0  0
   -8.7615   -1.4935    6.4820 C   0  0  0  0  0  4           0  0  0
   -7.2090   -0.6468    5.1689 C   0  0  0  0  0  4           0  0  0
  -12.2040   -1.1037    5.5270 C   0  0  0  0  0  4           0  0  0
   -8.5929   -0.7970    5.3260 C   0  0  0  0  0  4           0  0  0
  -12.8412   -0.0394    4.8674 C   0  0  0  0  0  4           0  0  0
  -12.9979   -2.1501    6.0258 C   0  0  0  0  0  4           0  0  0
  -14.2306   -0.0256    4.7110 C   0  0  0  0  0  4           0  0  0
  -14.3865   -2.1331    5.8664 C   0  0  0  0  0  4           0  0  0
  -15.0021   -1.0721    5.2086 C   0  0  0  0  0  4           0  0  0
  -10.1339   -1.7371    6.7724 C   0  0  0  0  0  4           0  0  0
   -9.8921   -0.5265    4.7715 C   0  0  0  0  0  4           0  0  0
   -6.4477   -0.0000    4.1097 C   0  0  0  0  0  4           0  0  0
   -4.9357    0.0000    4.1792 C   0  0  0  0  0  4           0  0  0
   -4.3088   -0.0000    2.7861 C   0  0  0  0  0  4           0  0  0
   -2.7812   -0.0000    2.7861 C   0  0  0  0  0  4           0  0  0
   -2.1544   -0.0000    1.3930 C   0  0  0  0  0  4           0  0  0
   -0.6268    0.0000    1.3930 C   0  0  0  0  0  4           0  0  0
    0.0000   -0.0000    0.0000 C   0  0  0  0  0  4           0  0  0
    1.5277    0.0000    0.0000 C   0  0  0  0  0  4           0  0  0
    2.1546    0.0000   -1.3930 C   0  0  0  0  0  4           0  0  0
    3.6821    0.0000   -1.3930 C   0  0  0  0  0  4           0  0  0
    4.3089    0.0000   -2.7861 C   0  0  0  0  0  4           0  0  0
    5.8365    0.0000   -2.7861 C   0  0  0  0  0  4           0  0  0
    6.4633    0.0000   -4.1791 C   0  0  0  0  0  4           0  0  0
    7.9909    0.0000   -4.1791 C   0  0  0  0  0  4           0  0  0
    8.6177    0.0000   -5.5721 C   0  0  0  0  0  4           0  0  0
   10.1453   -0.0000   -5.5721 C   0  0  0  0  0  4           0  0  0
   10.7721    0.0000   -6.9651 C   0  0  0  0  0  4           0  0  0
   12.2948   -0.0000   -6.9080 C   0  0  0  0  0  4           0  0  0
  1 16  2  0     0  0
  2 17  2  0     0  0
  3 18  2  0     0  0
  4  5  1  0     0  0
  4  7  1  0     0  0
  5  8  2  0     0  0
  6  9  1  0     0  0
  6 16  1  0     0  0
  6 17  1  0     0  0
  7 10  2  0     0  0
  7 16  1  0     0  0
  8 10  1  0     0  0
  8 18  1  0     0  0
  9 11  2  0     0  0
  9 12  1  0     0  0
 10 17  1  0     0  0
 11 13  1  0     0  0
 12 14  2  0     0  0
 13 15  2  0     0  0
 14 15  1  0     0  0
 18 19  1  0     0  0
 19 20  1  0     0  0
 20 21  1  0     0  0
 21 22  1  0     0  0
 22 23  1  0     0  0
 23 24  1  0     0  0
 24 25  1  0     0  0
 25 26  1  0     0  0
 26 27  1  0     0  0
 27 28  1  0     0  0
 28 29  1  0     0  0
 29 30  1  0     0  0
 30 31  1  0     0  0
 31 32  1  0     0  0
 32 33  1  0     0  0
 33 34  1  0     0  0
 34 35  1  0     0  0
M  END
> <standard_type>
IC50

> <# Confs.>
25

> <canonical_smiles>
O=C1C2=C(C(C(CCCCCCCCCCCCCCCCC)=O)=NN2)C(N1C3=CC=CC=C3)=O

> <standard_relation>
=

> <predicted_activity_value>
6.5376020021010435

> <actual_activity_value>
6.638272163982407

> <Compound>
2

> <publication_ID>
nan

> <standard_units>
nM

> hash
518409665345276232

$$$$
2_
XXILIB    08252103493D 0   0.00000     0.00000

 35 37  0     1  0            999 V2000
  -10.4109    4.4707    4.0456 O   0  0  0  0  0  2           0  0  0
  -10.1110   -0.2201    3.9679 O   0  0  0  0  0  2           0  0  0
   -7.0625   -1.0659    4.0814 O   0  0  0  0  0  2           0  0  0
   -7.4053    3.4001    4.1057 N   0  0  0  0  0  3           0  0  0
   -6.4616    2.4283    4.1224 N   0  0  0  0  0  3           0  0  0
  -10.7143    2.0977    3.9981 N   0  0  1  0  0  3           0  0  0
   -8.6503    2.8911    4.0639 C   0  0  0  0  0  4           0  0  0
   -7.1594    1.2701    4.0906 C   0  0  0  0  0  4           0  0  0
  -12.1321    2.0070    3.9642 C   0  0  0  0  0  4           0  0  0
   -8.5341    1.5361    4.0473 C   0  0  0  0  0  4           0  0  0
  -12.9046    3.0138    3.3611 C   0  0  0  0  0  4           0  0  0
  -12.7966    0.9077    4.5333 C   0  0  0  0  0  4           0  0  0
  -14.2993    2.9203    3.3280 C   0  0  0  0  0  4           0  0  0
  -14.1911    0.8175    4.4971 C   0  0  0  0  0  4           0  0  0
  -14.9416    1.8226    3.8940 C   0  0  0  0  0  4           0  0  0
  -10.0081    3.3187    4.0358 C   0  0  0  0  0  4           0  0  0
   -9.8565    0.9728    3.9993 C   0  0  0  0  0  4           0  0  0
   -6.4477   -0.0000    4.1097 C   0  0  0  0  0  4           0  0  0
   -4.9357    0.0000    4.1792 C   0  0  0  0  0  4           0  0  0
   -4.3088   -0.0000    2.7861 C   0  0  0  0  0  4           0  0  0
   -2.7812   -0.0000    2.7861 C   0  0  0  0  0  4           0  0  0
   -2.1544   -0.0000    1.3930 C   0  0  0  0  0  4           0  0  0
   -0.6268    0.0000    1.3930 C   0  0  0  0  0  4           0  0  0
    0.0000   -0.0000    0.0000 C   0  0  0  0  0  4           0  0  0
    1.5277    0.0000    0.0000 C   0  0  0  0  0  4           0  0  0
    2.1546    0.0000   -1.3930 C   0  0  0  0  0  4           0  0  0
    3.6821    0.0000   -1.3930 C   0  0  0  0  0  4           0  0  0
    4.3089    0.0000   -2.7861 C   0  0  0  0  0  4           0  0  0
    5.8365    0.0000   -2.7861 C   0  0  0  0  0  4           0  0  0
    6.4633    0.0000   -4.1791 C   0  0  0  0  0  4           0  0  0
    7.9909    0.0000   -4.1791 C   0  0  0  0  0  4           0  0  0
    8.6177    0.0000   -5.5721 C   0  0  0  0  0  4           0  0  0
   10.1453   -0.0000   -5.5721 C   0  0  0  0  0  4           0  0  0
   10.7721    0.0000   -6.9651 C   0  0  0  0  0  4           0  0  0
   12.2948   -0.0000   -6.9080 C   0  0  0  0  0  4           0  0  0
  1 16  2  0     0  0
  2 17  2  0     0  0
  3 18  2  0     0  0
  4  5  1  0     0  0
  4  7  1  0     0  0
  5  8  2  0     0  0
  6  9  1  0     0  0
  6 16  1  0     0  0
  6 17  1  0     0  0
  7 10  2  0     0  0
  7 16  1  0     0  0
  8 10  1  0     0  0
  8 18  1  0     0  0
  9 11  2  0     0  0
  9 12  1  0     0  0
 10 17  1  0     0  0
 11 13  1  0     0  0
 12 14  2  0     0  0
 13 15  2  0     0  0
 14 15  1  0     0  0
 18 19  1  0     0  0
 19 20  1  0     0  0
 20 21  1  0     0  0
 21 22  1  0     0  0
 22 23  1  0     0  0
 23 24  1  0     0  0
 24 25  1  0     0  0
 25 26  1  0     0  0
 26 27  1  0     0  0
 27 28  1  0     0  0
 28 29  1  0     0  0
 29 30  1  0     0  0
 30 31  1  0     0  0
 31 32  1  0     0  0
 32 33  1  0     0  0
 33 34  1  0     0  0
 34 35  1  0     0  0
M  END
> <standard_type>
IC50

> <# Confs.>
25

> <canonical_smiles>
O=C1C2=C(C(C(CCCCCCCCCCCCCCCCC)=O)=NN2)C(N1C3=CC=CC=C3)=O

> <standard_relation>
=

> <predicted_activity_value>
6.5376020021010435

> <actual_activity_value>
6.638272163982407

> <Compound>
2

> <publication_ID>
nan

> <standard_units>
nM

> hash
518409665345276232

$$$$
2_
XXILIB    08252103493D 0   0.00000     0.00000

 35 37  0     1  0            999 V2000
  -10.5861    2.1331    7.8543 O   0  0  0  0  0  2           0  0  0
  -10.1016   -0.1331    3.7641 O   0  0  0  0  0  2           0  0  0
   -7.0201   -0.5330    3.1593 O   0  0  0  0  0  2           0  0  0
   -7.5397    1.6654    7.0272 N   0  0  0  0  0  3           0  0  0
   -6.5579    1.2026    6.2165 N   0  0  0  0  0  3           0  0  0
  -10.7958    0.9757    5.7707 N   0  0  1  0  0  3           0  0  0
   -8.7640    1.3976    6.5373 C   0  0  0  0  0  4           0  0  0
   -7.2096    0.6232    5.1825 C   0  0  0  0  0  4           0  0  0
  -12.2093    0.9033    5.6426 C   0  0  0  0  0  4           0  0  0
   -8.5944    0.7390    5.3594 C   0  0  0  0  0  4           0  0  0
  -12.8187    0.8901    4.3767 C   0  0  0  0  0  4           0  0  0
  -13.0325    0.8432    6.7795 C   0  0  0  0  0  4           0  0  0
  -14.2096    0.8170    4.2546 C   0  0  0  0  0  4           0  0  0
  -14.4227    0.7690    6.6531 C   0  0  0  0  0  4           0  0  0
  -15.0105    0.7549    5.3915 C   0  0  0  0  0  4           0  0  0
  -10.1380    1.5816    6.8620 C   0  0  0  0  0  4           0  0  0
   -9.8942    0.4463    4.8177 C   0  0  0  0  0  4           0  0  0
   -6.4477   -0.0000    4.1097 C   0  0  0  0  0  4           0  0  0
   -4.9357    0.0000    4.1792 C   0  0  0  0  0  4           0  0  0
   -4.3088   -0.0000    2.7861 C   0  0  0  0  0  4           0  0  0
   -2.7812   -0.0000    2.7861 C   0  0  0  0  0  4           0  0  0
   -2.1544   -0.0000    1.3930 C   0  0  0  0  0  4           0  0  0
   -0.6268    0.0000    1.3930 C   0  0  0  0  0  4           0  0  0
    0.0000   -0.0000    0.0000 C   0  0  0  0  0  4           0  0  0
    1.5277    0.0000    0.0000 C   0  0  0  0  0  4           0  0  0
    2.1546    0.0000   -1.3930 C   0  0  0  0  0  4           0  0  0
    3.6821    0.0000   -1.3930 C   0  0  0  0  0  4           0  0  0
    4.3089    0.0000   -2.7861 C   0  0  0  0  0  4           0  0  0
    5.8365    0.0000   -2.7861 C   0  0  0  0  0  4           0  0  0
    6.4633    0.0000   -4.1791 C   0  0  0  0  0  4           0  0  0
    7.9909    0.0000   -4.1791 C   0  0  0  0  0  4           0  0  0
    8.6177    0.0000   -5.5721 C   0  0  0  0  0  4           0  0  0
   10.1453   -0.0000   -5.5721 C   0  0  0  0  0  4           0  0  0
   10.7721    0.0000   -6.9651 C   0  0  0  0  0  4           0  0  0
   12.2948   -0.0000   -6.9080 C   0  0  0  0  0  4           0  0  0
  1 16  2  0     0  0
  2 17  2  0     0  0
  3 18  2  0     0  0
  4  5  1  0     0  0
  4  7  1  0     0  0
  5  8  2  0     0  0
  6  9  1  0     0  0
  6 16  1  0     0  0
  6 17  1  0     0  0
  7 10  2  0     0  0
  7 16  1  0     0  0
  8 10  1  0     0  0
  8 18  1  0     0  0
  9 11  2  0     0  0
  9 12  1  0     0  0
 10 17  1  0     0  0
 11 13  1  0     0  0
 12 14  2  0     0  0
 13 15  2  0     0  0
 14 15  1  0     0  0
 18 19  1  0     0  0
 19 20  1  0     0  0
 20 21  1  0     0  0
 21 22  1  0     0  0
 22 23  1  0     0  0
 23 24  1  0     0  0
 24 25  1  0     0  0
 25 26  1  0     0  0
 26 27  1  0     0  0
 27 28  1  0     0  0
 28 29  1  0     0  0
 29 30  1  0     0  0
 30 31  1  0     0  0
 31 32  1  0     0  0
 32 33  1  0     0  0
 33 34  1  0     0  0
 34 35  1  0     0  0
M  END
> <standard_type>
IC50

> <# Confs.>
25

> <canonical_smiles>
O=C1C2=C(C(C(CCCCCCCCCCCCCCCCC)=O)=NN2)C(N1C3=CC=CC=C3)=O

> <standard_relation>
=

> <predicted_activity_value>
6.5376020021010435

> <actual_activity_value>
6.638272163982407

> <Compound>
2

> <publication_ID>
nan

> <standard_units>
nM

> hash
518409665345276232

$$$$
2_
XXILIB    08252103493D 0   0.00000     0.00000

 35 37  0     1  0            999 V2000
   -1.5086   -1.7640   10.1060 O   0  0  0  0  0  2           0  0  0
   -3.5889   -4.3019    6.7398 O   0  0  0  0  0  2           0  0  0
   -4.7908   -2.3458    4.5602 O   0  0  0  0  0  2           0  0  0
   -2.8350    0.0238    7.8195 N   0  0  0  0  0  3           0  0  0
   -3.5135    0.2086    6.6616 N   0  0  0  0  0  3           0  0  0
   -2.4257   -3.4145    8.6364 N   0  0  1  0  0  3           0  0  0
   -2.6899   -1.2811    8.1144 C   0  0  0  0  0  4           0  0  0
   -3.7966   -1.0400    6.2254 C   0  0  0  0  0  4           0  0  0
   -2.0486   -4.6109    9.3045 C   0  0  0  0  0  4           0  0  0
   -3.2951   -1.9904    7.1241 C   0  0  0  0  0  4           0  0  0
   -1.9120   -4.6434   10.7024 C   0  0  0  0  0  4           0  0  0
   -1.8029   -5.7910    8.5829 C   0  0  0  0  0  4           0  0  0
   -1.5426   -5.8227   11.3565 C   0  0  0  0  0  4           0  0  0
   -1.4349   -6.9683    9.2407 C   0  0  0  0  0  4           0  0  0
   -1.3059   -6.9841   10.6265 C   0  0  0  0  0  4           0  0  0
   -2.1145   -2.1219    9.1089 C   0  0  0  0  0  4           0  0  0
   -3.1533   -3.3899    7.4235 C   0  0  0  0  0  4           0  0  0
   -4.5226   -1.2188    4.9760 C   0  0  0  0  0  4           0  0  0
   -4.9357   -0.0000    4.1792 C   0  0  0  0  0  4           0  0  0
   -4.3088   -0.0000    2.7861 C   0  0  0  0  0  4           0  0  0
   -2.7812   -0.0000    2.7861 C   0  0  0  0  0  4           0  0  0
   -2.1544   -0.0000    1.3930 C   0  0  0  0  0  4           0  0  0
   -0.6268    0.0000    1.3930 C   0  0  0  0  0  4           0  0  0
    0.0000    0.0000    0.0000 C   0  0  0  0  0  4           0  0  0
    1.5277    0.0000    0.0000 C   0  0  0  0  0  4           0  0  0
    2.1546    0.0000   -1.3930 C   0  0  0  0  0  4           0  0  0
    3.6821    0.0000   -1.3930 C   0  0  0  0  0  4           0  0  0
    4.3089    0.0000   -2.7861 C   0  0  0  0  0  4           0  0  0
    5.8365    0.0000   -2.7861 C   0  0  0  0  0  4           0  0  0
    6.4633    0.0000   -4.1791 C   0  0  0  0  0  4           0  0  0
    7.9909    0.0000   -4.1791 C   0  0  0  0  0  4           0  0  0
    8.6177    0.0000   -5.5721 C   0  0  0  0  0  4           0  0  0
   10.1453   -0.0000   -5.5721 C   0  0  0  0  0  4           0  0  0
   10.7721    0.0000   -6.9651 C   0  0  0  0  0  4           0  0  0
   12.2948   -0.0000   -6.9080 C   0  0  0  0  0  4           0  0  0
  1 16  2  0     0  0
  2 17  2  0     0  0
  3 18  2  0     0  0
  4  5  1  0     0  0
  4  7  1  0     0  0
  5  8  2  0     0  0
  6  9  1  0     0  0
  6 16  1  0     0  0
  6 17  1  0     0  0
  7 10  2  0     0  0
  7 16  1  0     0  0
  8 10  1  0     0  0
  8 18  1  0     0  0
  9 11  2  0     0  0
  9 12  1  0     0  0
 10 17  1  0     0  0
 11 13  1  0     0  0
 12 14  2  0     0  0
 13 15  2  0     0  0
 14 15  1  0     0  0
 18 19  1  0     0  0
 19 20  1  0     0  0
 20 21  1  0     0  0
 21 22  1  0     0  0
 22 23  1  0     0  0
 23 24  1  0     0  0
 24 25  1  0     0  0
 25 26  1  0     0  0
 26 27  1  0     0  0
 27 28  1  0     0  0
 28 29  1  0     0  0
 29 30  1  0     0  0
 30 31  1  0     0  0
 31 32  1  0     0  0
 32 33  1  0     0  0
 33 34  1  0     0  0
 34 35  1  0     0  0
M  END
> <standard_type>
IC50

> <# Confs.>
25

> <canonical_smiles>
O=C1C2=C(C(C(CCCCCCCCCCCCCCCCC)=O)=NN2)C(N1C3=CC=CC=C3)=O

> <standard_relation>
=

> <predicted_activity_value>
6.5376020021010435

> <actual_activity_value>
6.638272163982407

> <Compound>
2

> <publication_ID>
nan

> <standard_units>
nM

> hash
518409665345276232

$$$$
2_
XXILIB    08252103493D 0   0.00000     0.00000

 35 37  0     1  0            999 V2000
  -10.6109   -4.7973   -0.1200 O   0  0  0  0  0  2           0  0  0
  -10.0996   -0.7967    2.2954 O   0  0  0  0  0  2           0  0  0
   -7.0135   -0.1997    2.6708 O   0  0  0  0  0  2           0  0  0
   -7.5597   -4.0297    0.4133 N   0  0  0  0  0  3           0  0  0
   -6.5725   -3.2398    0.9001 N   0  0  0  0  0  3           0  0  0
  -10.8067   -2.7490    1.1013 N   0  0  1  0  0  3           0  0  0
   -8.7805   -3.5321    0.6828 C   0  0  0  0  0  4           0  0  0
   -7.2171   -2.2099    1.4944 C   0  0  0  0  0  4           0  0  0
  -12.2190   -2.5985    1.1521 C   0  0  0  0  0  4           0  0  0
   -8.6031   -2.3754    1.3760 C   0  0  0  0  0  4           0  0  0
  -13.0638   -3.7212    1.1586 C   0  0  0  0  0  4           0  0  0
  -12.8054   -1.3226    1.1970 C   0  0  0  0  0  4           0  0  0
  -14.4527   -3.5694    1.2105 C   0  0  0  0  0  4           0  0  0
  -14.1945   -1.1751    1.2500 C   0  0  0  0  0  4           0  0  0
  -15.0173   -2.2977    1.2577 C   0  0  0  0  0  4           0  0  0
  -10.1564   -3.8308    0.4707 C   0  0  0  0  0  4           0  0  0
   -9.8991   -1.8291    1.6766 C   0  0  0  0  0  4           0  0  0
   -6.4477   -1.1463    2.1242 C   0  0  0  0  0  4           0  0  0
   -4.9357   -1.2065    2.0895 C   0  0  0  0  0  4           0  0  0
   -4.3088   -0.0000    2.7861 C   0  0  0  0  0  4           0  0  0
   -2.7812   -0.0000    2.7861 C   0  0  0  0  0  4           0  0  0
   -2.1544   -0.0000    1.3930 C   0  0  0  0  0  4           0  0  0
   -0.6268   -0.0000    1.3930 C   0  0  0  0  0  4           0  0  0
    0.0000    0.0000    0.0000 C   0  0  0  0  0  4           0  0  0
    1.5277    0.0000    0.0000 C   0  0  0  0  0  4           0  0  0
    2.1546    0.0000   -1.3930 C   0  0  0  0  0  4           0  0  0
    3.6821    0.0000   -1.3930 C   0  0  0  0  0  4           0  0  0
    4.3089    0.0000   -2.7861 C   0  0  0  0  0  4           0  0  0
    5.8365    0.0000   -2.7861 C   0  0  0  0  0  4           0  0  0
    6.4633    0.0000   -4.1791 C   0  0  0  0  0  4           0  0  0
    7.9909    0.0000   -4.1791 C   0  0  0  0  0  4           0  0  0
    8.6177    0.0000   -5.5721 C   0  0  0  0  0  4           0  0  0
   10.1453   -0.0000   -5.5721 C   0  0  0  0  0  4           0  0  0
   10.7721    0.0000   -6.9651 C   0  0  0  0  0  4           0  0  0
   12.2948   -0.0000   -6.9080 C   0  0  0  0  0  4           0  0  0
  1 16  2  0     0  0
  2 17  2  0     0  0
  3 18  2  0     0  0
  4  5  1  0     0  0
  4  7  1  0     0  0
  5  8  2  0     0  0
  6  9  1  0     0  0
  6 16  1  0     0  0
  6 17  1  0     0  0
  7 10  2  0     0  0
  7 16  1  0     0  0
  8 10  1  0     0  0
  8 18  1  0     0  0
  9 11  2  0     0  0
  9 12  1  0     0  0
 10 17  1  0     0  0
 11 13  1  0     0  0
 12 14  2  0     0  0
 13 15  2  0     0  0
 14 15  1  0     0  0
 18 19  1  0     0  0
 19 20  1  0     0  0
 20 21  1  0     0  0
 21 22  1  0     0  0
 22 23  1  0     0  0
 23 24  1  0     0  0
 24 25  1  0     0  0
 25 26  1  0     0  0
 26 27  1  0     0  0
 27 28  1  0     0  0
 28 29  1  0     0  0
 29 30  1  0     0  0
 30 31  1  0     0  0
 31 32  1  0     0  0
 32 33  1  0     0  0
 33 34  1  0     0  0
 34 35  1  0     0  0
M  END
> <standard_type>
IC50

> <# Confs.>
25

> <canonical_smiles>
O=C1C2=C(C(C(CCCCCCCCCCCCCCCCC)=O)=NN2)C(N1C3=CC=CC=C3)=O

> <standard_relation>
=

> <predicted_activity_value>
6.5376020021010435

> <actual_activity_value>
6.638272163982407

> <Compound>
2

> <publication_ID>
nan

> <standard_units>
nM

> hash
518409665345276232

$$$$
2_
XXILIB    08252103493D 0   0.00000     0.00000

 35 37  0     1  0            999 V2000
   -3.6895   -2.0253   10.8372 O   0  0  0  0  0  2           0  0  0
   -3.4786   -4.2793    6.7172 O   0  0  0  0  0  2           0  0  0
   -4.2684   -2.2751    4.3975 O   0  0  0  0  0  2           0  0  0
   -4.4980   -0.1899    8.3551 N   0  0  0  0  0  3           0  0  0
   -4.7025    0.0514    7.0377 N   0  0  0  0  0  3           0  0  0
   -3.4465   -3.5284    8.9915 N   0  0  1  0  0  3           0  0  0
   -4.1021   -1.4563    8.5786 C   0  0  0  0  0  4           0  0  0
   -4.4179   -1.1202    6.4249 C   0  0  0  0  0  4           0  0  0
   -3.0222   -4.7093    9.6586 C   0  0  0  0  0  4           0  0  0
   -4.0450   -2.0823    7.3724 C   0  0  0  0  0  4           0  0  0
   -3.3348   -5.9792    9.1450 C   0  0  0  0  0  4           0  0  0
   -2.2794   -4.6359   10.8489 C   0  0  0  0  0  4           0  0  0
   -2.9141   -7.1389    9.8031 C   0  0  0  0  0  4           0  0  0
   -1.8597   -5.7978   11.5032 C   0  0  0  0  0  4           0  0  0
   -2.1761   -7.0482   10.9800 C   0  0  0  0  0  4           0  0  0
   -3.7332   -2.3153    9.6525 C   0  0  0  0  0  4           0  0  0
   -3.6260   -3.4406    7.5911 C   0  0  0  0  0  4           0  0  0
   -4.5226   -1.2188    4.9760 C   0  0  0  0  0  4           0  0  0
   -4.9357   -0.0000    4.1792 C   0  0  0  0  0  4           0  0  0
   -4.3088   -0.0000    2.7861 C   0  0  0  0  0  4           0  0  0
   -2.7812   -0.0000    2.7861 C   0  0  0  0  0  4           0  0  0
   -2.1544   -0.0000    1.3930 C   0  0  0  0  0  4           0  0  0
   -0.6268    0.0000    1.3930 C   0  0  0  0  0  4           0  0  0
    0.0000    0.0000    0.0000 C   0  0  0  0  0  4           0  0  0
    1.5277    0.0000    0.0000 C   0  0  0  0  0  4           0  0  0
    2.1546    0.0000   -1.3930 C   0  0  0  0  0  4           0  0  0
    3.6821    0.0000   -1.3930 C   0  0  0  0  0  4           0  0  0
    4.3089    0.0000   -2.7861 C   0  0  0  0  0  4           0  0  0
    5.8365    0.0000   -2.7861 C   0  0  0  0  0  4           0  0  0
    6.4633    0.0000   -4.1791 C   0  0  0  0  0  4           0  0  0
    7.9909    0.0000   -4.1791 C   0  0  0  0  0  4           0  0  0
    8.6177    0.0000   -5.5721 C   0  0  0  0  0  4           0  0  0
   10.1453   -0.0000   -5.5721 C   0  0  0  0  0  4           0  0  0
   10.7721    0.0000   -6.9651 C   0  0  0  0  0  4           0  0  0
   12.2948   -0.0000   -6.9080 C   0  0  0  0  0  4           0  0  0
  1 16  2  0     0  0
  2 17  2  0     0  0
  3 18  2  0     0  0
  4  5  1  0     0  0
  4  7  1  0     0  0
  5  8  2  0     0  0
  6  9  1  0     0  0
  6 16  1  0     0  0
  6 17  1  0     0  0
  7 10  2  0     0  0
  7 16  1  0     0  0
  8 10  1  0     0  0
  8 18  1  0     0  0
  9 11  2  0     0  0
  9 12  1  0     0  0
 10 17  1  0     0  0
 11 13  1  0     0  0
 12 14  2  0     0  0
 13 15  2  0     0  0
 14 15  1  0     0  0
 18 19  1  0     0  0
 19 20  1  0     0  0
 20 21  1  0     0  0
 21 22  1  0     0  0
 22 23  1  0     0  0
 23 24  1  0     0  0
 24 25  1  0     0  0
 25 26  1  0     0  0
 26 27  1  0     0  0
 27 28  1  0     0  0
 28 29  1  0     0  0
 29 30  1  0     0  0
 30 31  1  0     0  0
 31 32  1  0     0  0
 32 33  1  0     0  0
 33 34  1  0     0  0
 34 35  1  0     0  0
M  END
> <standard_type>
IC50

> <# Confs.>
25

> <canonical_smiles>
O=C1C2=C(C(C(CCCCCCCCCCCCCCCCC)=O)=NN2)C(N1C3=CC=CC=C3)=O

> <standard_relation>
=

> <predicted_activity_value>
6.5376020021010435

> <actual_activity_value>
6.638272163982407

> <Compound>
2

> <publication_ID>
nan

> <standard_units>
nM

> hash
518409665345276232

$$$$
2_
XXILIB    08252103493D 0   0.00000     0.00000

 35 37  0     1  0            999 V2000
  -10.6109   -0.1180    8.3937 O   0  0  0  0  0  2           0  0  0
  -10.0996   -0.0266    3.7214 O   0  0  0  0  0  2           0  0  0
   -7.0135   -0.0000    3.0166 O   0  0  0  0  0  2           0  0  0
   -7.5597   -0.0400    7.4622 N   0  0  0  0  0  3           0  0  0
   -6.5725   -0.0133    6.5348 N   0  0  0  0  0  3           0  0  0
  -10.8067   -0.0845    6.0092 N   0  0  1  0  0  3           0  0  0
   -8.7805   -0.0554    6.8966 C   0  0  0  0  0  4           0  0  0
   -7.2171   -0.0136    5.3457 C   0  0  0  0  0  4           0  0  0
  -12.2190   -0.1158    5.8534 C   0  0  0  0  0  4           0  0  0
   -8.6031   -0.0335    5.5483 C   0  0  0  0  0  4           0  0  0
  -12.8357    0.4912    4.7464 C   0  0  0  0  0  4           0  0  0
  -13.0336   -0.7545    6.8033 C   0  0  0  0  0  4           0  0  0
  -14.2253    0.4569    4.5955 C   0  0  0  0  0  4           0  0  0
  -14.4225   -0.7875    6.6481 C   0  0  0  0  0  4           0  0  0
  -15.0176   -0.1831    5.5446 C   0  0  0  0  0  4           0  0  0
  -10.1564   -0.0898    7.2613 C   0  0  0  0  0  4           0  0  0
   -9.8991   -0.0463    4.9248 C   0  0  0  0  0  4           0  0  0
   -6.4477   -0.0000    4.1097 C   0  0  0  0  0  4           0  0  0
   -4.9357    0.0000    4.1792 C   0  0  0  0  0  4           0  0  0
   -4.3088   -0.0000    2.7861 C   0  0  0  0  0  4           0  0  0
   -2.7812   -0.0000    2.7861 C   0  0  0  0  0  4           0  0  0
   -2.1544   -0.0000    1.3930 C   0  0  0  0  0  4           0  0  0
   -0.6268    0.0000    1.3930 C   0  0  0  0  0  4           0  0  0
    0.0000   -0.0000    0.0000 C   0  0  0  0  0  4           0  0  0
    1.5277    0.0000    0.0000 C   0  0  0  0  0  4           0  0  0
    2.1546    0.0000   -1.3930 C   0  0  0  0  0  4           0  0  0
    3.6821    0.0000   -1.3930 C   0  0  0  0  0  4           0  0  0
    4.3089    0.0000   -2.7861 C   0  0  0  0  0  4           0  0  0
    5.8365    0.0000   -2.7861 C   0  0  0  0  0  4           0  0  0
    6.4633    0.0000   -4.1791 C   0  0  0  0  0  4           0  0  0
    7.9909    0.0000   -4.1791 C   0  0  0  0  0  4           0  0  0
    8.6177    0.0000   -5.5721 C   0  0  0  0  0  4           0  0  0
   10.1453   -0.0000   -5.5721 C   0  0  0  0  0  4           0  0  0
   10.7721   -1.2064   -4.8756 C   0  0  0  0  0  4           0  0  0
   12.2948   -1.1569   -4.9042 C   0  0  0  0  0  4           0  0  0
  1 16  2  0     0  0
  2 17  2  0     0  0
  3 18  2  0     0  0
  4  5  1  0     0  0
  4  7  1  0     0  0
  5  8  2  0     0  0
  6  9  1  0     0  0
  6 16  1  0     0  0
  6 17  1  0     0  0
  7 10  2  0     0  0
  7 16  1  0     0  0
  8 10  1  0     0  0
  8 18  1  0     0  0
  9 11  2  0     0  0
  9 12  1  0     0  0
 10 17  1  0     0  0
 11 13  1  0     0  0
 12 14  2  0     0  0
 13 15  2  0     0  0
 14 15  1  0     0  0
 18 19  1  0     0  0
 19 20  1  0     0  0
 20 21  1  0     0  0
 21 22  1  0     0  0
 22 23  1  0     0  0
 23 24  1  0     0  0
 24 25  1  0     0  0
 25 26  1  0     0  0
 26 27  1  0     0  0
 27 28  1  0     0  0
 28 29  1  0     0  0
 29 30  1  0     0  0
 30 31  1  0     0  0
 31 32  1  0     0  0
 32 33  1  0     0  0
 33 34  1  0     0  0
 34 35  1  0     0  0
M  END
> <standard_type>
IC50

> <# Confs.>
25

> <canonical_smiles>
O=C1C2=C(C(C(CCCCCCCCCCCCCCCCC)=O)=NN2)C(N1C3=CC=CC=C3)=O

> <standard_relation>
=

> <predicted_activity_value>
6.5376020021010435

> <actual_activity_value>
6.638272163982407

> <Compound>
2

> <publication_ID>
nan

> <standard_units>
nM

> hash
518409665345276232

$$$$
2_
XXILIB    08252103493D 0   0.00000     0.00000

 35 37  0     1  0            999 V2000
   -3.8984   -4.1317   11.4141 O   0  0  0  0  0  2           0  0  0
   -1.4745   -5.4341    7.6025 O   0  0  0  0  0  2           0  0  0
   -1.8635   -3.2605    5.3340 O   0  0  0  0  0  2           0  0  0
   -4.1921   -2.0921    8.9776 N   0  0  0  0  0  3           0  0  0
   -3.9368   -1.6553    7.7208 N   0  0  0  0  0  3           0  0  0
   -2.5379   -5.1505    9.7299 N   0  0  1  0  0  3           0  0  0
   -3.5604   -3.2495    9.2455 C   0  0  0  0  0  4           0  0  0
   -3.1097   -2.5868    7.1940 C   0  0  0  0  0  4           0  0  0
   -2.0764   -6.3056   10.4173 C   0  0  0  0  0  4           0  0  0
   -2.8648   -3.5995    8.1304 C   0  0  0  0  0  4           0  0  0
   -2.8591   -6.9118   11.4143 C   0  0  0  0  0  4           0  0  0
   -0.8254   -6.8698   10.1168 C   0  0  0  0  0  4           0  0  0
   -2.4026   -8.0492   12.0873 C   0  0  0  0  0  4           0  0  0
   -0.3731   -8.0077   10.7911 C   0  0  0  0  0  4           0  0  0
   -1.1617   -8.5974   11.7748 C   0  0  0  0  0  4           0  0  0
   -3.3976   -4.1893   10.3027 C   0  0  0  0  0  4           0  0  0
   -2.1840   -4.8382    8.3964 C   0  0  0  0  0  4           0  0  0
   -2.6170   -2.4252    5.8334 C   0  0  0  0  0  4           0  0  0
   -3.0302   -1.2064    5.0367 C   0  0  0  0  0  4           0  0  0
   -2.4033   -1.2064    3.6435 C   0  0  0  0  0  4           0  0  0
   -2.7812   -0.0000    2.7861 C   0  0  0  0  0  4           0  0  0
   -2.1544    0.0000    1.3930 C   0  0  0  0  0  4           0  0  0
   -0.6268    0.0000    1.3930 C   0  0  0  0  0  4           0  0  0
    0.0000    0.0000    0.0000 C   0  0  0  0  0  4           0  0  0
    1.5277    0.0000    0.0000 C   0  0  0  0  0  4           0  0  0
    2.1546    0.0000   -1.3930 C   0  0  0  0  0  4           0  0  0
    3.6821    0.0000   -1.3930 C   0  0  0  0  0  4           0  0  0
    4.3089    0.0000   -2.7861 C   0  0  0  0  0  4           0  0  0
    5.8365    0.0000   -2.7861 C   0  0  0  0  0  4           0  0  0
    6.4633    0.0000   -4.1791 C   0  0  0  0  0  4           0  0  0
    7.9909    0.0000   -4.1791 C   0  0  0  0  0  4           0  0  0
    8.6177    0.0000   -5.5721 C   0  0  0  0  0  4           0  0  0
   10.1453   -0.0000   -5.5721 C   0  0  0  0  0  4           0  0  0
   10.7721    0.0000   -6.9651 C   0  0  0  0  0  4           0  0  0
   12.2948   -0.0000   -6.9080 C   0  0  0  0  0  4           0  0  0
  1 16  2  0     0  0
  2 17  2  0     0  0
  3 18  2  0     0  0
  4  5  1  0     0  0
  4  7  1  0     0  0
  5  8  2  0     0  0
  6  9  1  0     0  0
  6 16  1  0     0  0
  6 17  1  0     0  0
  7 10  2  0     0  0
  7 16  1  0     0  0
  8 10  1  0     0  0
  8 18  1  0     0  0
  9 11  2  0     0  0
  9 12  1  0     0  0
 10 17  1  0     0  0
 11 13  1  0     0  0
 12 14  2  0     0  0
 13 15  2  0     0  0
 14 15  1  0     0  0
 18 19  1  0     0  0
 19 20  1  0     0  0
 20 21  1  0     0  0
 21 22  1  0     0  0
 22 23  1  0     0  0
 23 24  1  0     0  0
 24 25  1  0     0  0
 25 26  1  0     0  0
 26 27  1  0     0  0
 27 28  1  0     0  0
 28 29  1  0     0  0
 29 30  1  0     0  0
 30 31  1  0     0  0
 31 32  1  0     0  0
 32 33  1  0     0  0
 33 34  1  0     0  0
 34 35  1  0     0  0
M  END
> <standard_type>
IC50

> <# Confs.>
25

> <canonical_smiles>
O=C1C2=C(C(C(CCCCCCCCCCCCCCCCC)=O)=NN2)C(N1C3=CC=CC=C3)=O

> <standard_relation>
=

> <predicted_activity_value>
6.5376020021010435

> <actual_activity_value>
6.638272163982407

> <Compound>
2

> <publication_ID>
nan

> <standard_units>
nM

> hash
518409665345276232

$$$$
2_
XXILIB    08252103493D 0   0.00000     0.00000

 35 37  0     1  0            999 V2000
   -1.9929   -5.3381   12.2716 O   0  0  0  0  0  2           0  0  0
    0.4310   -6.6405    8.4599 O   0  0  0  0  0  2           0  0  0
    0.0421   -4.4669    6.1915 O   0  0  0  0  0  2           0  0  0
   -2.2866   -3.2985    9.8350 N   0  0  0  0  0  3           0  0  0
   -2.0313   -2.8617    8.5782 N   0  0  0  0  0  3           0  0  0
   -0.6324   -6.3569   10.5874 N   0  0  1  0  0  3           0  0  0
   -1.6549   -4.4559   10.1030 C   0  0  0  0  0  4           0  0  0
   -1.2042   -3.7932    8.0514 C   0  0  0  0  0  4           0  0  0
   -0.1709   -7.5120   11.2748 C   0  0  0  0  0  4           0  0  0
   -0.9593   -4.8059    8.9878 C   0  0  0  0  0  4           0  0  0
   -0.9536   -8.1182   12.2718 C   0  0  0  0  0  4           0  0  0
    1.0801   -8.0762   10.9742 C   0  0  0  0  0  4           0  0  0
   -0.4971   -9.2556   12.9447 C   0  0  0  0  0  4           0  0  0
    1.5324   -9.2141   11.6485 C   0  0  0  0  0  4           0  0  0
    0.7439   -9.8038   12.6323 C   0  0  0  0  0  4           0  0  0
   -1.4921   -5.3957   11.1601 C   0  0  0  0  0  4           0  0  0
   -0.2785   -6.0446    9.2538 C   0  0  0  0  0  4           0  0  0
   -0.7115   -3.6316    6.6908 C   0  0  0  0  0  4           0  0  0
   -1.1247   -2.4128    5.8941 C   0  0  0  0  0  4           0  0  0
   -0.4978   -2.4128    4.5009 C   0  0  0  0  0  4           0  0  0
   -0.8757   -1.2064    3.6435 C   0  0  0  0  0  4           0  0  0
   -0.2489   -1.2064    2.2505 C   0  0  0  0  0  4           0  0  0
   -0.6268    0.0000    1.3930 C   0  0  0  0  0  4           0  0  0
    0.0000    0.0000    0.0000 C   0  0  0  0  0  4           0  0  0
    1.5277    0.0000    0.0000 C   0  0  0  0  0  4           0  0  0
    2.1546    0.0000   -1.3930 C   0  0  0  0  0  4           0  0  0
    3.6821    0.0000   -1.3930 C   0  0  0  0  0  4           0  0  0
    4.3089    0.0000   -2.7861 C   0  0  0  0  0  4           0  0  0
    5.8365    0.0000   -2.7861 C   0  0  0  0  0  4           0  0  0
    6.4633    0.0000   -4.1791 C   0  0  0  0  0  4           0  0  0
    7.9909    0.0000   -4.1791 C   0  0  0  0  0  4           0  0  0
    8.6177    0.0000   -5.5721 C   0  0  0  0  0  4           0  0  0
   10.1453   -0.0000   -5.5721 C   0  0  0  0  0  4           0  0  0
   10.7721    0.0000   -6.9651 C   0  0  0  0  0  4           0  0  0
   12.2948   -0.0000   -6.9080 C   0  0  0  0  0  4           0  0  0
  1 16  2  0     0  0
  2 17  2  0     0  0
  3 18  2  0     0  0
  4  5  1  0     0  0
  4  7  1  0     0  0
  5  8  2  0     0  0
  6  9  1  0     0  0
  6 16  1  0     0  0
  6 17  1  0     0  0
  7 10  2  0     0  0
  7 16  1  0     0  0
  8 10  1  0     0  0
  8 18  1  0     0  0
  9 11  2  0     0  0
  9 12  1  0     0  0
 10 17  1  0     0  0
 11 13  1  0     0  0
 12 14  2  0     0  0
 13 15  2  0     0  0
 14 15  1  0     0  0
 18 19  1  0     0  0
 19 20  1  0     0  0
 20 21  1  0     0  0
 21 22  1  0     0  0
 22 23  1  0     0  0
 23 24  1  0     0  0
 24 25  1  0     0  0
 25 26  1  0     0  0
 26 27  1  0     0  0
 27 28  1  0     0  0
 28 29  1  0     0  0
 29 30  1  0     0  0
 30 31  1  0     0  0
 31 32  1  0     0  0
 32 33  1  0     0  0
 33 34  1  0     0  0
 34 35  1  0     0  0
M  END
> <standard_type>
IC50

> <# Confs.>
25

> <canonical_smiles>
O=C1C2=C(C(C(CCCCCCCCCCCCCCCCC)=O)=NN2)C(N1C3=CC=CC=C3)=O

> <standard_relation>
=

> <predicted_activity_value>
6.5376020021010435

> <actual_activity_value>
6.638272163982407

> <Compound>
2

> <publication_ID>
nan

> <standard_units>
nM

> hash
518409665345276232

$$$$
2_
XXILIB    08252103493D 0   0.00000     0.00000

 35 37  0     1  0            999 V2000
  -10.6109   -0.1180    8.3937 O   0  0  0  0  0  2           0  0  0
  -10.0996   -0.0266    3.7214 O   0  0  0  0  0  2           0  0  0
   -7.0135   -0.0000    3.0166 O   0  0  0  0  0  2           0  0  0
   -7.5597   -0.0400    7.4622 N   0  0  0  0  0  3           0  0  0
   -6.5725   -0.0133    6.5348 N   0  0  0  0  0  3           0  0  0
  -10.8067   -0.0845    6.0092 N   0  0  1  0  0  3           0  0  0
   -8.7805   -0.0554    6.8966 C   0  0  0  0  0  4           0  0  0
   -7.2171   -0.0136    5.3457 C   0  0  0  0  0  4           0  0  0
  -12.2190   -0.1158    5.8534 C   0  0  0  0  0  4           0  0  0
   -8.6031   -0.0335    5.5483 C   0  0  0  0  0  4           0  0  0
  -13.0638    0.4512    6.8225 C   0  0  0  0  0  4           0  0  0
  -12.8054   -0.7148    4.7260 C   0  0  0  0  0  4           0  0  0
  -14.4527    0.4202    6.6650 C   0  0  0  0  0  4           0  0  0
  -14.1945   -0.7427    4.5718 C   0  0  0  0  0  4           0  0  0
  -15.0173   -0.1747    5.5401 C   0  0  0  0  0  4           0  0  0
  -10.1564   -0.0898    7.2613 C   0  0  0  0  0  4           0  0  0
   -9.8991   -0.0463    4.9248 C   0  0  0  0  0  4           0  0  0
   -6.4477   -0.0000    4.1097 C   0  0  0  0  0  4           0  0  0
   -4.9357    0.0000    4.1792 C   0  0  0  0  0  4           0  0  0
   -4.3088   -0.0000    2.7861 C   0  0  0  0  0  4           0  0  0
   -2.7812   -0.0000    2.7861 C   0  0  0  0  0  4           0  0  0
   -2.1544   -0.0000    1.3930 C   0  0  0  0  0  4           0  0  0
   -0.6268    0.0000    1.3930 C   0  0  0  0  0  4           0  0  0
    0.0000   -0.0000    0.0000 C   0  0  0  0  0  4           0  0  0
    1.5277    0.0000    0.0000 C   0  0  0  0  0  4           0  0  0
    2.1546    1.2064    0.6965 C   0  0  0  0  0  4           0  0  0
    3.6821    1.2064    0.6965 C   0  0  0  0  0  4           0  0  0
    4.3089    2.4128    1.3930 C   0  0  0  0  0  4           0  0  0
    5.8365    2.4128    1.3930 C   0  0  0  0  0  4           0  0  0
    6.4633    3.6192    2.0895 C   0  0  0  0  0  4           0  0  0
    7.9909    3.6192    2.0895 C   0  0  0  0  0  4           0  0  0
    8.6177    4.8256    2.7861 C   0  0  0  0  0  4           0  0  0
   10.1453    4.8256    2.7861 C   0  0  0  0  0  4           0  0  0
   10.7721    6.0320    3.4826 C   0  0  0  0  0  4           0  0  0
   12.2948    5.9825    3.4540 C   0  0  0  0  0  4           0  0  0
  1 16  2  0     0  0
  2 17  2  0     0  0
  3 18  2  0     0  0
  4  5  1  0     0  0
  4  7  1  0     0  0
  5  8  2  0     0  0
  6  9  1  0     0  0
  6 16  1  0     0  0
  6 17  1  0     0  0
  7 10  2  0     0  0
  7 16  1  0     0  0
  8 10  1  0     0  0
  8 18  1  0     0  0
  9 11  2  0     0  0
  9 12  1  0     0  0
 10 17  1  0     0  0
 11 13  1  0     0  0
 12 14  2  0     0  0
 13 15  2  0     0  0
 14 15  1  0     0  0
 18 19  1  0     0  0
 19 20  1  0     0  0
 20 21  1  0     0  0
 21 22  1  0     0  0
 22 23  1  0     0  0
 23 24  1  0     0  0
 24 25  1  0     0  0
 25 26  1  0     0  0
 26 27  1  0     0  0
 27 28  1  0     0  0
 28 29  1  0     0  0
 29 30  1  0     0  0
 30 31  1  0     0  0
 31 32  1  0     0  0
 32 33  1  0     0  0
 33 34  1  0     0  0
 34 35  1  0     0  0
M  END
> <standard_type>
IC50

> <# Confs.>
25

> <canonical_smiles>
O=C1C2=C(C(C(CCCCCCCCCCCCCCCCC)=O)=NN2)C(N1C3=CC=CC=C3)=O

> <standard_relation>
=

> <predicted_activity_value>
6.5376020021010435

> <actual_activity_value>
6.638272163982407

> <Compound>
2

> <publication_ID>
nan

> <standard_units>
nM

> hash
518409665345276232

$$$$
2_
XXILIB    08252103493D 0   0.00000     0.00000

 35 37  0     1  0            999 V2000
  -10.6109   -0.1180    8.3937 O   0  0  0  0  0  2           0  0  0
  -10.0996   -0.0266    3.7214 O   0  0  0  0  0  2           0  0  0
   -7.0135   -0.0000    3.0166 O   0  0  0  0  0  2           0  0  0
   -7.5597   -0.0400    7.4622 N   0  0  0  0  0  3           0  0  0
   -6.5725   -0.0133    6.5348 N   0  0  0  0  0  3           0  0  0
  -10.8067   -0.0845    6.0092 N   0  0  1  0  0  3           0  0  0
   -8.7805   -0.0554    6.8966 C   0  0  0  0  0  4           0  0  0
   -7.2171   -0.0136    5.3457 C   0  0  0  0  0  4           0  0  0
  -12.2190   -0.1158    5.8534 C   0  0  0  0  0  4           0  0  0
   -8.6031   -0.0335    5.5483 C   0  0  0  0  0  4           0  0  0
  -13.0638    0.4512    6.8225 C   0  0  0  0  0  4           0  0  0
  -12.8054   -0.7148    4.7260 C   0  0  0  0  0  4           0  0  0
  -14.4527    0.4202    6.6650 C   0  0  0  0  0  4           0  0  0
  -14.1945   -0.7427    4.5718 C   0  0  0  0  0  4           0  0  0
  -15.0173   -0.1747    5.5401 C   0  0  0  0  0  4           0  0  0
  -10.1564   -0.0898    7.2613 C   0  0  0  0  0  4           0  0  0
   -9.8991   -0.0463    4.9248 C   0  0  0  0  0  4           0  0  0
   -6.4477   -0.0000    4.1097 C   0  0  0  0  0  4           0  0  0
   -4.9357    0.0000    4.1792 C   0  0  0  0  0  4           0  0  0
   -4.3088   -0.0000    2.7861 C   0  0  0  0  0  4           0  0  0
   -2.7812   -0.0000    2.7861 C   0  0  0  0  0  4           0  0  0
   -2.1544   -0.0000    1.3930 C   0  0  0  0  0  4           0  0  0
   -0.6268    0.0000    1.3930 C   0  0  0  0  0  4           0  0  0
    0.0000   -0.0000    0.0000 C   0  0  0  0  0  4           0  0  0
    1.5277   -0.0000    0.0000 C   0  0  0  0  0  4           0  0  0
    2.1546    0.0000   -1.3930 C   0  0  0  0  0  4           0  0  0
    1.7766   -1.2064   -2.2505 C   0  0  0  0  0  4           0  0  0
    2.4034   -1.2064   -3.6435 C   0  0  0  0  0  4           0  0  0
    2.0255   -2.4128   -4.5009 C   0  0  0  0  0  4           0  0  0
    2.6523   -2.4128   -5.8940 C   0  0  0  0  0  4           0  0  0
    2.2744   -3.6192   -6.7514 C   0  0  0  0  0  4           0  0  0
    2.9012   -3.6192   -8.1444 C   0  0  0  0  0  4           0  0  0
    2.5232   -4.8256   -9.0019 C   0  0  0  0  0  4           0  0  0
    3.1501   -4.8256  -10.3949 C   0  0  0  0  0  4           0  0  0
    2.7412   -6.0484  -11.2069 C   0  0  0  0  0  4           0  0  0
  1 16  2  0     0  0
  2 17  2  0     0  0
  3 18  2  0     0  0
  4  5  1  0     0  0
  4  7  1  0     0  0
  5  8  2  0     0  0
  6  9  1  0     0  0
  6 16  1  0     0  0
  6 17  1  0     0  0
  7 10  2  0     0  0
  7 16  1  0     0  0
  8 10  1  0     0  0
  8 18  1  0     0  0
  9 11  2  0     0  0
  9 12  1  0     0  0
 10 17  1  0     0  0
 11 13  1  0     0  0
 12 14  2  0     0  0
 13 15  2  0     0  0
 14 15  1  0     0  0
 18 19  1  0     0  0
 19 20  1  0     0  0
 20 21  1  0     0  0
 21 22  1  0     0  0
 22 23  1  0     0  0
 23 24  1  0     0  0
 24 25  1  0     0  0
 25 26  1  0     0  0
 26 27  1  0     0  0
 27 28  1  0     0  0
 28 29  1  0     0  0
 29 30  1  0     0  0
 30 31  1  0     0  0
 31 32  1  0     0  0
 32 33  1  0     0  0
 33 34  1  0     0  0
 34 35  1  0     0  0
M  END
> <standard_type>
IC50

> <# Confs.>
25

> <canonical_smiles>
O=C1C2=C(C(C(CCCCCCCCCCCCCCCCC)=O)=NN2)C(N1C3=CC=CC=C3)=O

> <standard_relation>
=

> <predicted_activity_value>
6.5376020021010435

> <actual_activity_value>
6.638272163982407

> <Compound>
2

> <publication_ID>
nan

> <standard_units>
nM

> hash
518409665345276232

$$$$
2_
XXILIB    08252103493D 0   0.00000     0.00000

 35 37  0     1  0            999 V2000
  -10.6109   -0.1180    8.3937 O   0  0  0  0  0  2           0  0  0
  -10.0996   -0.0266    3.7214 O   0  0  0  0  0  2           0  0  0
   -7.0135   -0.0000    3.0166 O   0  0  0  0  0  2           0  0  0
   -7.5597   -0.0400    7.4622 N   0  0  0  0  0  3           0  0  0
   -6.5725   -0.0133    6.5348 N   0  0  0  0  0  3           0  0  0
  -10.8067   -0.0845    6.0092 N   0  0  1  0  0  3           0  0  0
   -8.7805   -0.0554    6.8966 C   0  0  0  0  0  4           0  0  0
   -7.2171   -0.0136    5.3457 C   0  0  0  0  0  4           0  0  0
  -12.2190   -0.1158    5.8534 C   0  0  0  0  0  4           0  0  0
   -8.6031   -0.0335    5.5483 C   0  0  0  0  0  4           0  0  0
  -13.0638    0.4512    6.8225 C   0  0  0  0  0  4           0  0  0
  -12.8054   -0.7148    4.7260 C   0  0  0  0  0  4           0  0  0
  -14.4527    0.4202    6.6650 C   0  0  0  0  0  4           0  0  0
  -14.1945   -0.7427    4.5718 C   0  0  0  0  0  4           0  0  0
  -15.0173   -0.1747    5.5401 C   0  0  0  0  0  4           0  0  0
  -10.1564   -0.0898    7.2613 C   0  0  0  0  0  4           0  0  0
   -9.8991   -0.0463    4.9248 C   0  0  0  0  0  4           0  0  0
   -6.4477   -0.0000    4.1097 C   0  0  0  0  0  4           0  0  0
   -4.9357    0.0000    4.1792 C   0  0  0  0  0  4           0  0  0
   -4.3088   -0.0000    2.7861 C   0  0  0  0  0  4           0  0  0
   -2.7812   -0.0000    2.7861 C   0  0  0  0  0  4           0  0  0
   -2.1544   -0.0000    1.3930 C   0  0  0  0  0  4           0  0  0
   -0.6268    0.0000    1.3930 C   0  0  0  0  0  4           0  0  0
    0.0000   -0.0000    0.0000 C   0  0  0  0  0  4           0  0  0
    1.5277    0.0000    0.0000 C   0  0  0  0  0  4           0  0  0
    2.1546    0.0000   -1.3930 C   0  0  0  0  0  4           0  0  0
    3.6821    0.0000   -1.3930 C   0  0  0  0  0  4           0  0  0
    4.3089    1.2064   -0.6965 C   0  0  0  0  0  4           0  0  0
    5.8365    1.2064   -0.6965 C   0  0  0  0  0  4           0  0  0
    6.4633    2.4128   -0.0000 C   0  0  0  0  0  4           0  0  0
    7.9909    2.4128   -0.0000 C   0  0  0  0  0  4           0  0  0
    8.6177    3.6192    0.6965 C   0  0  0  0  0  4           0  0  0
   10.1453    3.6192    0.6965 C   0  0  0  0  0  4           0  0  0
   10.7721    4.8256    1.3930 C   0  0  0  0  0  4           0  0  0
   12.2948    4.7761    1.3645 C   0  0  0  0  0  4           0  0  0
  1 16  2  0     0  0
  2 17  2  0     0  0
  3 18  2  0     0  0
  4  5  1  0     0  0
  4  7  1  0     0  0
  5  8  2  0     0  0
  6  9  1  0     0  0
  6 16  1  0     0  0
  6 17  1  0     0  0
  7 10  2  0     0  0
  7 16  1  0     0  0
  8 10  1  0     0  0
  8 18  1  0     0  0
  9 11  2  0     0  0
  9 12  1  0     0  0
 10 17  1  0     0  0
 11 13  1  0     0  0
 12 14  2  0     0  0
 13 15  2  0     0  0
 14 15  1  0     0  0
 18 19  1  0     0  0
 19 20  1  0     0  0
 20 21  1  0     0  0
 21 22  1  0     0  0
 22 23  1  0     0  0
 23 24  1  0     0  0
 24 25  1  0     0  0
 25 26  1  0     0  0
 26 27  1  0     0  0
 27 28  1  0     0  0
 28 29  1  0     0  0
 29 30  1  0     0  0
 30 31  1  0     0  0
 31 32  1  0     0  0
 32 33  1  0     0  0
 33 34  1  0     0  0
 34 35  1  0     0  0
M  END
> <standard_type>
IC50

> <# Confs.>
25

> <canonical_smiles>
O=C1C2=C(C(C(CCCCCCCCCCCCCCCCC)=O)=NN2)C(N1C3=CC=CC=C3)=O

> <standard_relation>
=

> <predicted_activity_value>
6.5376020021010435

> <actual_activity_value>
6.638272163982407

> <Compound>
2

> <publication_ID>
nan

> <standard_units>
nM

> hash
518409665345276232

$$$$
2_
XXILIB    08252103493D 0   0.00000     0.00000

 35 37  0     1  0            999 V2000
  -10.6109   -0.1180    8.3937 O   0  0  0  0  0  2           0  0  0
  -10.0996   -0.0266    3.7214 O   0  0  0  0  0  2           0  0  0
   -7.0135   -0.0000    3.0166 O   0  0  0  0  0  2           0  0  0
   -7.5597   -0.0400    7.4622 N   0  0  0  0  0  3           0  0  0
   -6.5725   -0.0133    6.5348 N   0  0  0  0  0  3           0  0  0
  -10.8067   -0.0845    6.0092 N   0  0  1  0  0  3           0  0  0
   -8.7805   -0.0554    6.8966 C   0  0  0  0  0  4           0  0  0
   -7.2171   -0.0136    5.3457 C   0  0  0  0  0  4           0  0  0
  -12.2190   -0.1158    5.8534 C   0  0  0  0  0  4           0  0  0
   -8.6031   -0.0335    5.5483 C   0  0  0  0  0  4           0  0  0
  -13.0638    0.4512    6.8225 C   0  0  0  0  0  4           0  0  0
  -12.8054   -0.7148    4.7260 C   0  0  0  0  0  4           0  0  0
  -14.4527    0.4202    6.6650 C   0  0  0  0  0  4           0  0  0
  -14.1945   -0.7427    4.5718 C   0  0  0  0  0  4           0  0  0
  -15.0173   -0.1747    5.5401 C   0  0  0  0  0  4           0  0  0
  -10.1564   -0.0898    7.2613 C   0  0  0  0  0  4           0  0  0
   -9.8991   -0.0463    4.9248 C   0  0  0  0  0  4           0  0  0
   -6.4477   -0.0000    4.1097 C   0  0  0  0  0  4           0  0  0
   -4.9357    0.0000    4.1792 C   0  0  0  0  0  4           0  0  0
   -4.3088   -0.0000    2.7861 C   0  0  0  0  0  4           0  0  0
   -2.7812   -0.0000    2.7861 C   0  0  0  0  0  4           0  0  0
   -2.1544   -0.0000    1.3930 C   0  0  0  0  0  4           0  0  0
   -0.6268    0.0000    1.3930 C   0  0  0  0  0  4           0  0  0
    0.0000   -0.0000    0.0000 C   0  0  0  0  0  4           0  0  0
    1.5277   -0.0000   -0.0000 C   0  0  0  0  0  4           0  0  0
    2.1546    0.0000   -1.3930 C   0  0  0  0  0  4           0  0  0
    3.6821   -0.0000   -1.3930 C   0  0  0  0  0  4           0  0  0
    4.3089    0.0000   -2.7861 C   0  0  0  0  0  4           0  0  0
    3.9310   -1.2064   -3.6435 C   0  0  0  0  0  4           0  0  0
    4.5578   -1.2064   -5.0365 C   0  0  0  0  0  4           0  0  0
    4.1799   -2.4128   -5.8940 C   0  0  0  0  0  4           0  0  0
    4.8067   -2.4128   -7.2870 C   0  0  0  0  0  4           0  0  0
    4.4287   -3.6192   -8.1444 C   0  0  0  0  0  4           0  0  0
    5.0556   -3.6192   -9.5375 C   0  0  0  0  0  4           0  0  0
    4.6468   -4.8420  -10.3494 C   0  0  0  0  0  4           0  0  0
  1 16  2  0     0  0
  2 17  2  0     0  0
  3 18  2  0     0  0
  4  5  1  0     0  0
  4  7  1  0     0  0
  5  8  2  0     0  0
  6  9  1  0     0  0
  6 16  1  0     0  0
  6 17  1  0     0  0
  7 10  2  0     0  0
  7 16  1  0     0  0
  8 10  1  0     0  0
  8 18  1  0     0  0
  9 11  2  0     0  0
  9 12  1  0     0  0
 10 17  1  0     0  0
 11 13  1  0     0  0
 12 14  2  0     0  0
 13 15  2  0     0  0
 14 15  1  0     0  0
 18 19  1  0     0  0
 19 20  1  0     0  0
 20 21  1  0     0  0
 21 22  1  0     0  0
 22 23  1  0     0  0
 23 24  1  0     0  0
 24 25  1  0     0  0
 25 26  1  0     0  0
 26 27  1  0     0  0
 27 28  1  0     0  0
 28 29  1  0     0  0
 29 30  1  0     0  0
 30 31  1  0     0  0
 31 32  1  0     0  0
 32 33  1  0     0  0
 33 34  1  0     0  0
 34 35  1  0     0  0
M  END
> <standard_type>
IC50

> <# Confs.>
25

> <canonical_smiles>
O=C1C2=C(C(C(CCCCCCCCCCCCCCCCC)=O)=NN2)C(N1C3=CC=CC=C3)=O

> <standard_relation>
=

> <predicted_activity_value>
6.5376020021010435

> <actual_activity_value>
6.638272163982407

> <Compound>
2

> <publication_ID>
nan

> <standard_units>
nM

> hash
518409665345276232

$$$$
2_
XXILIB    08252103493D 0   0.00000     0.00000

 35 37  0     1  0            999 V2000
  -10.6109   -0.1180    8.3937 O   0  0  0  0  0  2           0  0  0
  -10.0996   -0.0266    3.7214 O   0  0  0  0  0  2           0  0  0
   -7.0135   -0.0000    3.0166 O   0  0  0  0  0  2           0  0  0
   -7.5597   -0.0400    7.4622 N   0  0  0  0  0  3           0  0  0
   -6.5725   -0.0133    6.5348 N   0  0  0  0  0  3           0  0  0
  -10.8067   -0.0845    6.0092 N   0  0  1  0  0  3           0  0  0
   -8.7805   -0.0554    6.8966 C   0  0  0  0  0  4           0  0  0
   -7.2171   -0.0136    5.3457 C   0  0  0  0  0  4           0  0  0
  -12.2190   -0.1158    5.8534 C   0  0  0  0  0  4           0  0  0
   -8.6031   -0.0335    5.5483 C   0  0  0  0  0  4           0  0  0
  -13.0638    0.4512    6.8225 C   0  0  0  0  0  4           0  0  0
  -12.8054   -0.7148    4.7260 C   0  0  0  0  0  4           0  0  0
  -14.4527    0.4202    6.6650 C   0  0  0  0  0  4           0  0  0
  -14.1945   -0.7427    4.5718 C   0  0  0  0  0  4           0  0  0
  -15.0173   -0.1747    5.5401 C   0  0  0  0  0  4           0  0  0
  -10.1564   -0.0898    7.2613 C   0  0  0  0  0  4           0  0  0
   -9.8991   -0.0463    4.9248 C   0  0  0  0  0  4           0  0  0
   -6.4477   -0.0000    4.1097 C   0  0  0  0  0  4           0  0  0
   -4.9357    0.0000    4.1792 C   0  0  0  0  0  4           0  0  0
   -4.3088   -0.0000    2.7861 C   0  0  0  0  0  4           0  0  0
   -2.7812   -0.0000    2.7861 C   0  0  0  0  0  4           0  0  0
   -2.1544   -0.0000    1.3930 C   0  0  0  0  0  4           0  0  0
   -0.6268    0.0000    1.3930 C   0  0  0  0  0  4           0  0  0
    0.0000   -0.0000    0.0000 C   0  0  0  0  0  4           0  0  0
    1.5277   -0.0000   -0.0000 C   0  0  0  0  0  4           0  0  0
    2.1546    0.0000   -1.3930 C   0  0  0  0  0  4           0  0  0
    3.6821    0.0000   -1.3930 C   0  0  0  0  0  4           0  0  0
    4.3089    0.0000   -2.7861 C   0  0  0  0  0  4           0  0  0
    5.8365    0.0000   -2.7861 C   0  0  0  0  0  4           0  0  0
    6.4633    1.2064   -2.0895 C   0  0  0  0  0  4           0  0  0
    7.9909    1.2064   -2.0895 C   0  0  0  0  0  4           0  0  0
    8.6177    2.4128   -1.3930 C   0  0  0  0  0  4           0  0  0
   10.1453    2.4128   -1.3930 C   0  0  0  0  0  4           0  0  0
   10.7721    3.6192   -0.6965 C   0  0  0  0  0  4           0  0  0
   12.2948    3.5697   -0.7251 C   0  0  0  0  0  4           0  0  0
  1 16  2  0     0  0
  2 17  2  0     0  0
  3 18  2  0     0  0
  4  5  1  0     0  0
  4  7  1  0     0  0
  5  8  2  0     0  0
  6  9  1  0     0  0
  6 16  1  0     0  0
  6 17  1  0     0  0
  7 10  2  0     0  0
  7 16  1  0     0  0
  8 10  1  0     0  0
  8 18  1  0     0  0
  9 11  2  0     0  0
  9 12  1  0     0  0
 10 17  1  0     0  0
 11 13  1  0     0  0
 12 14  2  0     0  0
 13 15  2  0     0  0
 14 15  1  0     0  0
 18 19  1  0     0  0
 19 20  1  0     0  0
 20 21  1  0     0  0
 21 22  1  0     0  0
 22 23  1  0     0  0
 23 24  1  0     0  0
 24 25  1  0     0  0
 25 26  1  0     0  0
 26 27  1  0     0  0
 27 28  1  0     0  0
 28 29  1  0     0  0
 29 30  1  0     0  0
 30 31  1  0     0  0
 31 32  1  0     0  0
 32 33  1  0     0  0
 33 34  1  0     0  0
 34 35  1  0     0  0
M  END
> <standard_type>
IC50

> <# Confs.>
25

> <canonical_smiles>
O=C1C2=C(C(C(CCCCCCCCCCCCCCCCC)=O)=NN2)C(N1C3=CC=CC=C3)=O

> <standard_relation>
=

> <predicted_activity_value>
6.5376020021010435

> <actual_activity_value>
6.638272163982407

> <Compound>
2

> <publication_ID>
nan

> <standard_units>
nM

> hash
518409665345276232

$$$$
2_
XXILIB    08252103493D 0   0.00000     0.00000

 35 37  0     1  0            999 V2000
  -10.6109   -0.1180    8.3937 O   0  0  0  0  0  2           0  0  0
  -10.0996   -0.0266    3.7214 O   0  0  0  0  0  2           0  0  0
   -7.0135   -0.0000    3.0166 O   0  0  0  0  0  2           0  0  0
   -7.5597   -0.0400    7.4622 N   0  0  0  0  0  3           0  0  0
   -6.5725   -0.0133    6.5348 N   0  0  0  0  0  3           0  0  0
  -10.8067   -0.0845    6.0092 N   0  0  1  0  0  3           0  0  0
   -8.7805   -0.0554    6.8966 C   0  0  0  0  0  4           0  0  0
   -7.2171   -0.0136    5.3457 C   0  0  0  0  0  4           0  0  0
  -12.2190   -0.1158    5.8534 C   0  0  0  0  0  4           0  0  0
   -8.6031   -0.0335    5.5483 C   0  0  0  0  0  4           0  0  0
  -13.0638    0.4512    6.8225 C   0  0  0  0  0  4           0  0  0
  -12.8054   -0.7148    4.7260 C   0  0  0  0  0  4           0  0  0
  -14.4527    0.4202    6.6650 C   0  0  0  0  0  4           0  0  0
  -14.1945   -0.7427    4.5718 C   0  0  0  0  0  4           0  0  0
  -15.0173   -0.1747    5.5401 C   0  0  0  0  0  4           0  0  0
  -10.1564   -0.0898    7.2613 C   0  0  0  0  0  4           0  0  0
   -9.8991   -0.0463    4.9248 C   0  0  0  0  0  4           0  0  0
   -6.4477   -0.0000    4.1097 C   0  0  0  0  0  4           0  0  0
   -4.9357    0.0000    4.1792 C   0  0  0  0  0  4           0  0  0
   -4.3088   -0.0000    2.7861 C   0  0  0  0  0  4           0  0  0
   -2.7812   -0.0000    2.7861 C   0  0  0  0  0  4           0  0  0
   -2.1544   -0.0000    1.3930 C   0  0  0  0  0  4           0  0  0
   -0.6268    0.0000    1.3930 C   0  0  0  0  0  4           0  0  0
    0.0000   -0.0000    0.0000 C   0  0  0  0  0  4           0  0  0
    1.5277   -0.0000   -0.0000 C   0  0  0  0  0  4           0  0  0
    2.1546    0.0000   -1.3930 C   0  0  0  0  0  4           0  0  0
    3.6821   -0.0000   -1.3930 C   0  0  0  0  0  4           0  0  0
    4.3089   -0.0000   -2.7861 C   0  0  0  0  0  4           0  0  0
    5.8365   -0.0000   -2.7861 C   0  0  0  0  0  4           0  0  0
    6.4633    0.0000   -4.1791 C   0  0  0  0  0  4           0  0  0
    6.0854   -1.2064   -5.0365 C   0  0  0  0  0  4           0  0  0
    6.7122   -1.2064   -6.4296 C   0  0  0  0  0  4           0  0  0
    6.3343   -2.4128   -7.2870 C   0  0  0  0  0  4           0  0  0
    6.9611   -2.4128   -8.6800 C   0  0  0  0  0  4           0  0  0
    6.5523   -3.6356   -9.4920 C   0  0  0  0  0  4           0  0  0
  1 16  2  0     0  0
  2 17  2  0     0  0
  3 18  2  0     0  0
  4  5  1  0     0  0
  4  7  1  0     0  0
  5  8  2  0     0  0
  6  9  1  0     0  0
  6 16  1  0     0  0
  6 17  1  0     0  0
  7 10  2  0     0  0
  7 16  1  0     0  0
  8 10  1  0     0  0
  8 18  1  0     0  0
  9 11  2  0     0  0
  9 12  1  0     0  0
 10 17  1  0     0  0
 11 13  1  0     0  0
 12 14  2  0     0  0
 13 15  2  0     0  0
 14 15  1  0     0  0
 18 19  1  0     0  0
 19 20  1  0     0  0
 20 21  1  0     0  0
 21 22  1  0     0  0
 22 23  1  0     0  0
 23 24  1  0     0  0
 24 25  1  0     0  0
 25 26  1  0     0  0
 26 27  1  0     0  0
 27 28  1  0     0  0
 28 29  1  0     0  0
 29 30  1  0     0  0
 30 31  1  0     0  0
 31 32  1  0     0  0
 32 33  1  0     0  0
 33 34  1  0     0  0
 34 35  1  0     0  0
M  END
> <standard_type>
IC50

> <# Confs.>
25

> <canonical_smiles>
O=C1C2=C(C(C(CCCCCCCCCCCCCCCCC)=O)=NN2)C(N1C3=CC=CC=C3)=O

> <standard_relation>
=

> <predicted_activity_value>
6.5376020021010435

> <actual_activity_value>
6.638272163982407

> <Compound>
2

> <publication_ID>
nan

> <standard_units>
nM

> hash
518409665345276232

$$$$
2_
XXILIB    08252103493D 0   0.00000     0.00000

 35 37  0     1  0            999 V2000
  -10.6109   -0.1180    8.3937 O   0  0  0  0  0  2           0  0  0
  -10.0996   -0.0266    3.7214 O   0  0  0  0  0  2           0  0  0
   -7.0135   -0.0000    3.0166 O   0  0  0  0  0  2           0  0  0
   -7.5597   -0.0400    7.4622 N   0  0  0  0  0  3           0  0  0
   -6.5725   -0.0133    6.5348 N   0  0  0  0  0  3           0  0  0
  -10.8067   -0.0845    6.0092 N   0  0  1  0  0  3           0  0  0
   -8.7805   -0.0554    6.8966 C   0  0  0  0  0  4           0  0  0
   -7.2171   -0.0136    5.3457 C   0  0  0  0  0  4           0  0  0
  -12.2190   -0.1158    5.8534 C   0  0  0  0  0  4           0  0  0
   -8.6031   -0.0335    5.5483 C   0  0  0  0  0  4           0  0  0
  -13.0638    0.4512    6.8225 C   0  0  0  0  0  4           0  0  0
  -12.8054   -0.7148    4.7260 C   0  0  0  0  0  4           0  0  0
  -14.4527    0.4202    6.6650 C   0  0  0  0  0  4           0  0  0
  -14.1945   -0.7427    4.5718 C   0  0  0  0  0  4           0  0  0
  -15.0173   -0.1747    5.5401 C   0  0  0  0  0  4           0  0  0
  -10.1564   -0.0898    7.2613 C   0  0  0  0  0  4           0  0  0
   -9.8991   -0.0463    4.9248 C   0  0  0  0  0  4           0  0  0
   -6.4477   -0.0000    4.1097 C   0  0  0  0  0  4           0  0  0
   -4.9357    0.0000    4.1792 C   0  0  0  0  0  4           0  0  0
   -4.3088   -0.0000    2.7861 C   0  0  0  0  0  4           0  0  0
   -2.7812   -0.0000    2.7861 C   0  0  0  0  0  4           0  0  0
   -2.1544   -0.0000    1.3930 C   0  0  0  0  0  4           0  0  0
   -0.6268    0.0000    1.3930 C   0  0  0  0  0  4           0  0  0
    0.0000   -0.0000    0.0000 C   0  0  0  0  0  4           0  0  0
    1.5277    0.0000    0.0000 C   0  0  0  0  0  4           0  0  0
    2.1546    0.0000   -1.3930 C   0  0  0  0  0  4           0  0  0
    3.6821    0.0000   -1.3930 C   0  0  0  0  0  4           0  0  0
    4.3089    0.0000   -2.7861 C   0  0  0  0  0  4           0  0  0
    5.8365    0.0000   -2.7861 C   0  0  0  0  0  4           0  0  0
    6.4633    0.0000   -4.1791 C   0  0  0  0  0  4           0  0  0
    7.9909   -0.0000   -4.1791 C   0  0  0  0  0  4           0  0  0
    8.6177    1.2064   -3.4826 C   0  0  0  0  0  4           0  0  0
   10.1453    1.2064   -3.4826 C   0  0  0  0  0  4           0  0  0
   10.7721    2.4128   -2.7861 C   0  0  0  0  0  4           0  0  0
   12.2948    2.3633   -2.8146 C   0  0  0  0  0  4           0  0  0
  1 16  2  0     0  0
  2 17  2  0     0  0
  3 18  2  0     0  0
  4  5  1  0     0  0
  4  7  1  0     0  0
  5  8  2  0     0  0
  6  9  1  0     0  0
  6 16  1  0     0  0
  6 17  1  0     0  0
  7 10  2  0     0  0
  7 16  1  0     0  0
  8 10  1  0     0  0
  8 18  1  0     0  0
  9 11  2  0     0  0
  9 12  1  0     0  0
 10 17  1  0     0  0
 11 13  1  0     0  0
 12 14  2  0     0  0
 13 15  2  0     0  0
 14 15  1  0     0  0
 18 19  1  0     0  0
 19 20  1  0     0  0
 20 21  1  0     0  0
 21 22  1  0     0  0
 22 23  1  0     0  0
 23 24  1  0     0  0
 24 25  1  0     0  0
 25 26  1  0     0  0
 26 27  1  0     0  0
 27 28  1  0     0  0
 28 29  1  0     0  0
 29 30  1  0     0  0
 30 31  1  0     0  0
 31 32  1  0     0  0
 32 33  1  0     0  0
 33 34  1  0     0  0
 34 35  1  0     0  0
M  END
> <standard_type>
IC50

> <# Confs.>
25

> <canonical_smiles>
O=C1C2=C(C(C(CCCCCCCCCCCCCCCCC)=O)=NN2)C(N1C3=CC=CC=C3)=O

> <standard_relation>
=

> <predicted_activity_value>
6.5376020021010435

> <actual_activity_value>
6.638272163982407

> <Compound>
2

> <publication_ID>
nan

> <standard_units>
nM

> hash
518409665345276232

$$$$
2_
XXILIB    08252103493D 0   0.00000     0.00000

 35 37  0     1  0            999 V2000
  -10.6109   -0.1180    8.3937 O   0  0  0  0  0  2           0  0  0
  -10.0996   -0.0266    3.7214 O   0  0  0  0  0  2           0  0  0
   -7.0135   -0.0000    3.0166 O   0  0  0  0  0  2           0  0  0
   -7.5597   -0.0400    7.4622 N   0  0  0  0  0  3           0  0  0
   -6.5725   -0.0133    6.5348 N   0  0  0  0  0  3           0  0  0
  -10.8067   -0.0845    6.0092 N   0  0  1  0  0  3           0  0  0
   -8.7805   -0.0554    6.8966 C   0  0  0  0  0  4           0  0  0
   -7.2171   -0.0136    5.3457 C   0  0  0  0  0  4           0  0  0
  -12.2190   -0.1158    5.8534 C   0  0  0  0  0  4           0  0  0
   -8.6031   -0.0335    5.5483 C   0  0  0  0  0  4           0  0  0
  -13.0638    0.4512    6.8225 C   0  0  0  0  0  4           0  0  0
  -12.8054   -0.7148    4.7260 C   0  0  0  0  0  4           0  0  0
  -14.4527    0.4202    6.6650 C   0  0  0  0  0  4           0  0  0
  -14.1945   -0.7427    4.5718 C   0  0  0  0  0  4           0  0  0
  -15.0173   -0.1747    5.5401 C   0  0  0  0  0  4           0  0  0
  -10.1564   -0.0898    7.2613 C   0  0  0  0  0  4           0  0  0
   -9.8991   -0.0463    4.9248 C   0  0  0  0  0  4           0  0  0
   -6.4477   -0.0000    4.1097 C   0  0  0  0  0  4           0  0  0
   -4.9357    0.0000    4.1792 C   0  0  0  0  0  4           0  0  0
   -4.3088   -0.0000    2.7861 C   0  0  0  0  0  4           0  0  0
   -2.7812   -0.0000    2.7861 C   0  0  0  0  0  4           0  0  0
   -2.1544   -0.0000    1.3930 C   0  0  0  0  0  4           0  0  0
   -0.6268    0.0000    1.3930 C   0  0  0  0  0  4           0  0  0
    0.0000   -0.0000    0.0000 C   0  0  0  0  0  4           0  0  0
    1.5277    0.0000    0.0000 C   0  0  0  0  0  4           0  0  0
    2.1546    0.0000   -1.3930 C   0  0  0  0  0  4           0  0  0
    3.6821    0.0000   -1.3930 C   0  0  0  0  0  4           0  0  0
    4.3089    0.0000   -2.7861 C   0  0  0  0  0  4           0  0  0
    5.8365    0.0000   -2.7861 C   0  0  0  0  0  4           0  0  0
    6.4633    0.0000   -4.1791 C   0  0  0  0  0  4           0  0  0
    7.9909   -0.0000   -4.1791 C   0  0  0  0  0  4           0  0  0
    8.6177    0.0000   -5.5721 C   0  0  0  0  0  4           0  0  0
    8.2398   -1.2064   -6.4296 C   0  0  0  0  0  4           0  0  0
    8.8666   -1.2064   -7.8226 C   0  0  0  0  0  4           0  0  0
    8.4578   -2.4292   -8.6346 C   0  0  0  0  0  4           0  0  0
  1 16  2  0     0  0
  2 17  2  0     0  0
  3 18  2  0     0  0
  4  5  1  0     0  0
  4  7  1  0     0  0
  5  8  2  0     0  0
  6  9  1  0     0  0
  6 16  1  0     0  0
  6 17  1  0     0  0
  7 10  2  0     0  0
  7 16  1  0     0  0
  8 10  1  0     0  0
  8 18  1  0     0  0
  9 11  2  0     0  0
  9 12  1  0     0  0
 10 17  1  0     0  0
 11 13  1  0     0  0
 12 14  2  0     0  0
 13 15  2  0     0  0
 14 15  1  0     0  0
 18 19  1  0     0  0
 19 20  1  0     0  0
 20 21  1  0     0  0
 21 22  1  0     0  0
 22 23  1  0     0  0
 23 24  1  0     0  0
 24 25  1  0     0  0
 25 26  1  0     0  0
 26 27  1  0     0  0
 27 28  1  0     0  0
 28 29  1  0     0  0
 29 30  1  0     0  0
 30 31  1  0     0  0
 31 32  1  0     0  0
 32 33  1  0     0  0
 33 34  1  0     0  0
 34 35  1  0     0  0
M  END
> <standard_type>
IC50

> <# Confs.>
25

> <canonical_smiles>
O=C1C2=C(C(C(CCCCCCCCCCCCCCCCC)=O)=NN2)C(N1C3=CC=CC=C3)=O

> <standard_relation>
=

> <predicted_activity_value>
6.5376020021010435

> <actual_activity_value>
6.638272163982407

> <Compound>
2

> <publication_ID>
nan

> <standard_units>
nM

> hash
518409665345276232

$$$$
2_
XXILIB    08252103493D 0   0.00000     0.00000

 35 37  0     1  0            999 V2000
   -2.1793    5.4561   12.1877 O   0  0  0  0  0  2           0  0  0
    0.3890    6.6670    8.4410 O   0  0  0  0  0  2           0  0  0
    0.0421    4.4669    6.1915 O   0  0  0  0  0  2           0  0  0
   -2.3498    3.3384    9.8066 N   0  0  0  0  0  3           0  0  0
   -2.0524    2.8751    8.5687 N   0  0  0  0  0  3           0  0  0
   -0.7659    6.4414   10.5273 N   0  0  1  0  0  3           0  0  0
   -1.7424    4.5113   10.0636 C   0  0  0  0  0  4           0  0  0
   -1.2257    3.8068    8.0417 C   0  0  0  0  0  4           0  0  0
   -0.3537    7.6277   11.1925 C   0  0  0  0  0  4           0  0  0
   -1.0121    4.8394    8.9640 C   0  0  0  0  0  4           0  0  0
   -0.2409    7.6671   12.5924 C   0  0  0  0  0  4           0  0  0
   -0.0490    8.7911   10.4661 C   0  0  0  0  0  4           0  0  0
    0.1666    8.8355   13.2434 C   0  0  0  0  0  4           0  0  0
    0.3593    9.9568   11.1207 C   0  0  0  0  0  4           0  0  0
    0.4679    9.9785   12.5081 C   0  0  0  0  0  4           0  0  0
   -1.6338    5.4855   11.0963 C   0  0  0  0  0  4           0  0  0
   -0.3516    6.0909    9.2209 C   0  0  0  0  0  4           0  0  0
   -0.7115    3.6316    6.6908 C   0  0  0  0  0  4           0  0  0
   -1.1247    2.4128    5.8941 C   0  0  0  0  0  4           0  0  0
   -0.4978    2.4128    4.5009 C   0  0  0  0  0  4           0  0  0
   -0.8757    1.2064    3.6435 C   0  0  0  0  0  4           0  0  0
   -0.2489    1.2064    2.2505 C   0  0  0  0  0  4           0  0  0
   -0.6268    0.0000    1.3930 C   0  0  0  0  0  4           0  0  0
    0.0000    0.0000    0.0000 C   0  0  0  0  0  4           0  0  0
    1.5277    0.0000    0.0000 C   0  0  0  0  0  4           0  0  0
    2.1546    0.0000   -1.3930 C   0  0  0  0  0  4           0  0  0
    3.6821    0.0000   -1.3930 C   0  0  0  0  0  4           0  0  0
    4.3089    0.0000   -2.7861 C   0  0  0  0  0  4           0  0  0
    5.8365    0.0000   -2.7861 C   0  0  0  0  0  4           0  0  0
    6.4633    0.0000   -4.1791 C   0  0  0  0  0  4           0  0  0
    7.9909    0.0000   -4.1791 C   0  0  0  0  0  4           0  0  0
    8.6177    0.0000   -5.5721 C   0  0  0  0  0  4           0  0  0
   10.1453   -0.0000   -5.5721 C   0  0  0  0  0  4           0  0  0
   10.7721    0.0000   -6.9651 C   0  0  0  0  0  4           0  0  0
   12.2948   -0.0000   -6.9080 C   0  0  0  0  0  4           0  0  0
  1 16  2  0     0  0
  2 17  2  0     0  0
  3 18  2  0     0  0
  4  5  1  0     0  0
  4  7  1  0     0  0
  5  8  2  0     0  0
  6  9  1  0     0  0
  6 16  1  0     0  0
  6 17  1  0     0  0
  7 10  2  0     0  0
  7 16  1  0     0  0
  8 10  1  0     0  0
  8 18  1  0     0  0
  9 11  2  0     0  0
  9 12  1  0     0  0
 10 17  1  0     0  0
 11 13  1  0     0  0
 12 14  2  0     0  0
 13 15  2  0     0  0
 14 15  1  0     0  0
 18 19  1  0     0  0
 19 20  1  0     0  0
 20 21  1  0     0  0
 21 22  1  0     0  0
 22 23  1  0     0  0
 23 24  1  0     0  0
 24 25  1  0     0  0
 25 26  1  0     0  0
 26 27  1  0     0  0
 27 28  1  0     0  0
 28 29  1  0     0  0
 29 30  1  0     0  0
 30 31  1  0     0  0
 31 32  1  0     0  0
 32 33  1  0     0  0
 33 34  1  0     0  0
 34 35  1  0     0  0
M  END
> <standard_type>
IC50

> <# Confs.>
25

> <canonical_smiles>
O=C1C2=C(C(C(CCCCCCCCCCCCCCCCC)=O)=NN2)C(N1C3=CC=CC=C3)=O

> <standard_relation>
=

> <predicted_activity_value>
6.5376020021010435

> <actual_activity_value>
6.638272163982407

> <Compound>
2

> <publication_ID>
nan

> <standard_units>
nM

> hash
518409665345276232

$$$$
2_
XXILIB    08252103493D 0   0.00000     0.00000

 35 37  0     1  0            999 V2000
  -10.6109   -0.1180    8.3937 O   0  0  0  0  0  2           0  0  0
  -10.0996   -0.0266    3.7214 O   0  0  0  0  0  2           0  0  0
   -7.0135   -0.0000    3.0166 O   0  0  0  0  0  2           0  0  0
   -7.5597   -0.0400    7.4622 N   0  0  0  0  0  3           0  0  0
   -6.5725   -0.0133    6.5348 N   0  0  0  0  0  3           0  0  0
  -10.8067   -0.0845    6.0092 N   0  0  1  0  0  3           0  0  0
   -8.7805   -0.0554    6.8966 C   0  0  0  0  0  4           0  0  0
   -7.2171   -0.0136    5.3457 C   0  0  0  0  0  4           0  0  0
  -12.2190   -0.1158    5.8534 C   0  0  0  0  0  4           0  0  0
   -8.6031   -0.0335    5.5483 C   0  0  0  0  0  4           0  0  0
  -13.0638    0.4512    6.8225 C   0  0  0  0  0  4           0  0  0
  -12.8054   -0.7148    4.7260 C   0  0  0  0  0  4           0  0  0
  -14.4527    0.4202    6.6650 C   0  0  0  0  0  4           0  0  0
  -14.1945   -0.7427    4.5718 C   0  0  0  0  0  4           0  0  0
  -15.0173   -0.1747    5.5401 C   0  0  0  0  0  4           0  0  0
  -10.1564   -0.0898    7.2613 C   0  0  0  0  0  4           0  0  0
   -9.8991   -0.0463    4.9248 C   0  0  0  0  0  4           0  0  0
   -6.4477   -0.0000    4.1097 C   0  0  0  0  0  4           0  0  0
   -4.9357    0.0000    4.1792 C   0  0  0  0  0  4           0  0  0
   -4.3088   -0.0000    2.7861 C   0  0  0  0  0  4           0  0  0
   -2.7812   -0.0000    2.7861 C   0  0  0  0  0  4           0  0  0
   -2.1544   -0.0000    1.3930 C   0  0  0  0  0  4           0  0  0
   -0.6268    0.0000    1.3930 C   0  0  0  0  0  4           0  0  0
    0.0000   -0.0000    0.0000 C   0  0  0  0  0  4           0  0  0
    1.5277    0.0000    0.0000 C   0  0  0  0  0  4           0  0  0
    2.1546   -1.2064    0.6965 C   0  0  0  0  0  4           0  0  0
    3.6821   -1.2064    0.6965 C   0  0  0  0  0  4           0  0  0
    4.3089   -2.4128    1.3930 C   0  0  0  0  0  4           0  0  0
    5.8365   -2.4128    1.3930 C   0  0  0  0  0  4           0  0  0
    6.4633   -3.6192    2.0895 C   0  0  0  0  0  4           0  0  0
    7.9909   -3.6192    2.0895 C   0  0  0  0  0  4           0  0  0
    8.6177   -4.8256    2.7861 C   0  0  0  0  0  4           0  0  0
   10.1453   -4.8256    2.7861 C   0  0  0  0  0  4           0  0  0
   10.7721   -6.0320    3.4826 C   0  0  0  0  0  4           0  0  0
   12.2948   -5.9825    3.4540 C   0  0  0  0  0  4           0  0  0
  1 16  2  0     0  0
  2 17  2  0     0  0
  3 18  2  0     0  0
  4  5  1  0     0  0
  4  7  1  0     0  0
  5  8  2  0     0  0
  6  9  1  0     0  0
  6 16  1  0     0  0
  6 17  1  0     0  0
  7 10  2  0     0  0
  7 16  1  0     0  0
  8 10  1  0     0  0
  8 18  1  0     0  0
  9 11  2  0     0  0
  9 12  1  0     0  0
 10 17  1  0     0  0
 11 13  1  0     0  0
 12 14  2  0     0  0
 13 15  2  0     0  0
 14 15  1  0     0  0
 18 19  1  0     0  0
 19 20  1  0     0  0
 20 21  1  0     0  0
 21 22  1  0     0  0
 22 23  1  0     0  0
 23 24  1  0     0  0
 24 25  1  0     0  0
 25 26  1  0     0  0
 26 27  1  0     0  0
 27 28  1  0     0  0
 28 29  1  0     0  0
 29 30  1  0     0  0
 30 31  1  0     0  0
 31 32  1  0     0  0
 32 33  1  0     0  0
 33 34  1  0     0  0
 34 35  1  0     0  0
M  END
> <standard_type>
IC50

> <# Confs.>
25

> <canonical_smiles>
O=C1C2=C(C(C(CCCCCCCCCCCCCCCCC)=O)=NN2)C(N1C3=CC=CC=C3)=O

> <standard_relation>
=

> <predicted_activity_value>
6.5376020021010435

> <actual_activity_value>
6.638272163982407

> <Compound>
2

> <publication_ID>
nan

> <standard_units>
nM

> hash
518409665345276232

$$$$
2_
XXILIB    08252103493D 0   0.00000     0.00000

 35 37  0     1  0            999 V2000
  -10.6109   -0.1180    8.3937 O   0  0  0  0  0  2           0  0  0
  -10.0996   -0.0266    3.7214 O   0  0  0  0  0  2           0  0  0
   -7.0135   -0.0000    3.0166 O   0  0  0  0  0  2           0  0  0
   -7.5597   -0.0400    7.4622 N   0  0  0  0  0  3           0  0  0
   -6.5725   -0.0133    6.5348 N   0  0  0  0  0  3           0  0  0
  -10.8067   -0.0845    6.0092 N   0  0  1  0  0  3           0  0  0
   -8.7805   -0.0554    6.8966 C   0  0  0  0  0  4           0  0  0
   -7.2171   -0.0136    5.3457 C   0  0  0  0  0  4           0  0  0
  -12.2190   -0.1158    5.8534 C   0  0  0  0  0  4           0  0  0
   -8.6031   -0.0335    5.5483 C   0  0  0  0  0  4           0  0  0
  -13.0638    0.4512    6.8225 C   0  0  0  0  0  4           0  0  0
  -12.8054   -0.7148    4.7260 C   0  0  0  0  0  4           0  0  0
  -14.4527    0.4202    6.6650 C   0  0  0  0  0  4           0  0  0
  -14.1945   -0.7427    4.5718 C   0  0  0  0  0  4           0  0  0
  -15.0173   -0.1747    5.5401 C   0  0  0  0  0  4           0  0  0
  -10.1564   -0.0898    7.2613 C   0  0  0  0  0  4           0  0  0
   -9.8991   -0.0463    4.9248 C   0  0  0  0  0  4           0  0  0
   -6.4477   -0.0000    4.1097 C   0  0  0  0  0  4           0  0  0
   -4.9357    0.0000    4.1792 C   0  0  0  0  0  4           0  0  0
   -4.3088   -0.0000    2.7861 C   0  0  0  0  0  4           0  0  0
   -2.7812   -0.0000    2.7861 C   0  0  0  0  0  4           0  0  0
   -2.1544   -0.0000    1.3930 C   0  0  0  0  0  4           0  0  0
   -0.6268    0.0000    1.3930 C   0  0  0  0  0  4           0  0  0
    0.0000   -0.0000    0.0000 C   0  0  0  0  0  4           0  0  0
    1.5277   -0.0000   -0.0000 C   0  0  0  0  0  4           0  0  0
    2.1546    0.0000   -1.3930 C   0  0  0  0  0  4           0  0  0
    1.7766    1.2064   -2.2505 C   0  0  0  0  0  4           0  0  0
    2.4034    1.2064   -3.6435 C   0  0  0  0  0  4           0  0  0
    2.0255    2.4128   -4.5009 C   0  0  0  0  0  4           0  0  0
    2.6523    2.4128   -5.8940 C   0  0  0  0  0  4           0  0  0
    2.2744    3.6192   -6.7514 C   0  0  0  0  0  4           0  0  0
    2.9012    3.6192   -8.1444 C   0  0  0  0  0  4           0  0  0
    2.5232    4.8256   -9.0019 C   0  0  0  0  0  4           0  0  0
    3.1501    4.8256  -10.3949 C   0  0  0  0  0  4           0  0  0
    2.7412    6.0484  -11.2069 C   0  0  0  0  0  4           0  0  0
  1 16  2  0     0  0
  2 17  2  0     0  0
  3 18  2  0     0  0
  4  5  1  0     0  0
  4  7  1  0     0  0
  5  8  2  0     0  0
  6  9  1  0     0  0
  6 16  1  0     0  0
  6 17  1  0     0  0
  7 10  2  0     0  0
  7 16  1  0     0  0
  8 10  1  0     0  0
  8 18  1  0     0  0
  9 11  2  0     0  0
  9 12  1  0     0  0
 10 17  1  0     0  0
 11 13  1  0     0  0
 12 14  2  0     0  0
 13 15  2  0     0  0
 14 15  1  0     0  0
 18 19  1  0     0  0
 19 20  1  0     0  0
 20 21  1  0     0  0
 21 22  1  0     0  0
 22 23  1  0     0  0
 23 24  1  0     0  0
 24 25  1  0     0  0
 25 26  1  0     0  0
 26 27  1  0     0  0
 27 28  1  0     0  0
 28 29  1  0     0  0
 29 30  1  0     0  0
 30 31  1  0     0  0
 31 32  1  0     0  0
 32 33  1  0     0  0
 33 34  1  0     0  0
 34 35  1  0     0  0
M  END
> <standard_type>
IC50

> <# Confs.>
25

> <canonical_smiles>
O=C1C2=C(C(C(CCCCCCCCCCCCCCCCC)=O)=NN2)C(N1C3=CC=CC=C3)=O

> <standard_relation>
=

> <predicted_activity_value>
6.5376020021010435

> <actual_activity_value>
6.638272163982407

> <Compound>
2

> <publication_ID>
nan

> <standard_units>
nM

> hash
518409665345276232

$$$$
2_
XXILIB    08252103493D 0   0.00000     0.00000

 35 37  0     1  0            999 V2000
  -10.6109   -0.1180    8.3937 O   0  0  0  0  0  2           0  0  0
  -10.0996   -0.0266    3.7214 O   0  0  0  0  0  2           0  0  0
   -7.0135   -0.0000    3.0166 O   0  0  0  0  0  2           0  0  0
   -7.5597   -0.0400    7.4622 N   0  0  0  0  0  3           0  0  0
   -6.5725   -0.0133    6.5348 N   0  0  0  0  0  3           0  0  0
  -10.8067   -0.0845    6.0092 N   0  0  1  0  0  3           0  0  0
   -8.7805   -0.0554    6.8966 C   0  0  0  0  0  4           0  0  0
   -7.2171   -0.0136    5.3457 C   0  0  0  0  0  4           0  0  0
  -12.2190   -0.1158    5.8534 C   0  0  0  0  0  4           0  0  0
   -8.6031   -0.0335    5.5483 C   0  0  0  0  0  4           0  0  0
  -13.0638    0.4512    6.8225 C   0  0  0  0  0  4           0  0  0
  -12.8054   -0.7148    4.7260 C   0  0  0  0  0  4           0  0  0
  -14.4527    0.4202    6.6650 C   0  0  0  0  0  4           0  0  0
  -14.1945   -0.7427    4.5718 C   0  0  0  0  0  4           0  0  0
  -15.0173   -0.1747    5.5401 C   0  0  0  0  0  4           0  0  0
  -10.1564   -0.0898    7.2613 C   0  0  0  0  0  4           0  0  0
   -9.8991   -0.0463    4.9248 C   0  0  0  0  0  4           0  0  0
   -6.4477   -0.0000    4.1097 C   0  0  0  0  0  4           0  0  0
   -4.9357    0.0000    4.1792 C   0  0  0  0  0  4           0  0  0
   -4.3088   -0.0000    2.7861 C   0  0  0  0  0  4           0  0  0
   -2.7812   -0.0000    2.7861 C   0  0  0  0  0  4           0  0  0
   -2.1544   -0.0000    1.3930 C   0  0  0  0  0  4           0  0  0
   -0.6268    0.0000    1.3930 C   0  0  0  0  0  4           0  0  0
    0.0000   -0.0000    0.0000 C   0  0  0  0  0  4           0  0  0
    1.5277    0.0000    0.0000 C   0  0  0  0  0  4           0  0  0
    2.1546    0.0000   -1.3930 C   0  0  0  0  0  4           0  0  0
    3.6821    0.0000   -1.3930 C   0  0  0  0  0  4           0  0  0
    4.3089   -1.2064   -0.6965 C   0  0  0  0  0  4           0  0  0
    5.8365   -1.2064   -0.6965 C   0  0  0  0  0  4           0  0  0
    6.4633   -2.4128    0.0000 C   0  0  0  0  0  4           0  0  0
    7.9909   -2.4128    0.0000 C   0  0  0  0  0  4           0  0  0
    8.6177   -3.6192    0.6965 C   0  0  0  0  0  4           0  0  0
   10.1453   -3.6192    0.6965 C   0  0  0  0  0  4           0  0  0
   10.7721   -4.8256    1.3930 C   0  0  0  0  0  4           0  0  0
   12.2948   -4.7761    1.3645 C   0  0  0  0  0  4           0  0  0
  1 16  2  0     0  0
  2 17  2  0     0  0
  3 18  2  0     0  0
  4  5  1  0     0  0
  4  7  1  0     0  0
  5  8  2  0     0  0
  6  9  1  0     0  0
  6 16  1  0     0  0
  6 17  1  0     0  0
  7 10  2  0     0  0
  7 16  1  0     0  0
  8 10  1  0     0  0
  8 18  1  0     0  0
  9 11  2  0     0  0
  9 12  1  0     0  0
 10 17  1  0     0  0
 11 13  1  0     0  0
 12 14  2  0     0  0
 13 15  2  0     0  0
 14 15  1  0     0  0
 18 19  1  0     0  0
 19 20  1  0     0  0
 20 21  1  0     0  0
 21 22  1  0     0  0
 22 23  1  0     0  0
 23 24  1  0     0  0
 24 25  1  0     0  0
 25 26  1  0     0  0
 26 27  1  0     0  0
 27 28  1  0     0  0
 28 29  1  0     0  0
 29 30  1  0     0  0
 30 31  1  0     0  0
 31 32  1  0     0  0
 32 33  1  0     0  0
 33 34  1  0     0  0
 34 35  1  0     0  0
M  END
> <standard_type>
IC50

> <# Confs.>
25

> <canonical_smiles>
O=C1C2=C(C(C(CCCCCCCCCCCCCCCCC)=O)=NN2)C(N1C3=CC=CC=C3)=O

> <standard_relation>
=

> <predicted_activity_value>
6.5376020021010435

> <actual_activity_value>
6.638272163982407

> <Compound>
2

> <publication_ID>
nan

> <standard_units>
nM

> hash
518409665345276232

$$$$
13_
XXILIB    08252103493D 0   0.00000     0.00000

 26 26  0     1  0            999 V2000
    6.0577   -0.0000   -2.8128 S   0  0  0  0  0  2           0  0  0
    5.4741    0.0000   -5.3667 O   0  0  0  0  0  2           0  0  0
    9.1156   -0.0122   -2.9212 O   0  0  0  0  0  2           0  0  0
   10.1185    0.0169   -4.9750 O   0  0  0  0  0  2           0  0  0
    7.4596    0.0338   -7.3513 O   0  0  0  0  0  2           0  0  0
   11.6607   -1.2513   -6.9932 O   0  0  0  0  0  2           0  0  0
    6.3726    0.0000   -4.5331 C   0  0  0  0  0  4           0  0  0
    4.2373    0.0000   -2.8113 C   0  0  0  0  0  4           0  0  0
    9.0369   -0.0026   -4.1375 C   0  0  0  0  0  4           0  0  0
    8.2132    0.0063   -6.2124 C   0  0  0  0  0  4           0  0  0
    9.6827    0.0034   -6.3415 C   0  0  2  0  0  4           0  0  0
   10.2373   -1.2400   -7.0240 C   0  0  0  0  0  4           0  0  0
    7.7968   -0.0013   -4.9425 C   0  0  0  0  0  4           0  0  0
    3.6452    0.0000   -1.4064 C   0  0  0  0  0  4           0  0  0
    2.1190    0.0000   -1.4064 C   0  0  0  0  0  4           0  0  0
    1.5262   -0.0000   -0.0000 C   0  0  0  0  0  4           0  0  0
    0.0000    0.0000    0.0000 C   0  0  0  0  0  4           0  0  0
   -0.5927   -0.0000    1.4064 C   0  0  0  0  0  4           0  0  0
   -2.1190   -0.0000    1.4064 C   0  0  0  0  0  4           0  0  0
   -2.7117    0.0000    2.8129 C   0  0  0  0  0  4           0  0  0
   -4.2380   -0.0000    2.8129 C   0  0  0  0  0  4           0  0  0
   -4.8307    0.0000    4.2193 C   0  0  0  0  0  4           0  0  0
   -6.3569   -0.0000    4.2193 C   0  0  0  0  0  4           0  0  0
   -6.9497    0.0000    5.6258 C   0  0  0  0  0  4           0  0  0
   -8.4759   -0.0000    5.6258 C   0  0  0  0  0  4           0  0  0
   -9.0656    0.0000    7.0283 C   0  0  0  0  0  4           0  0  0
  1  7  1  0     0  0
  1  8  1  0     0  0
  2  7  2  0     0  0
  3  9  2  0     0  0
  4  9  1  0     0  0
  4 11  1  0     0  0
  5 10  1  0     0  0
  6 12  1  0     0  0
  7 13  1  0     0  0
  8 14  1  0     0  0
  9 13  1  0     0  0
 10 11  1  0     0  0
 10 13  2  0     0  0
 11 12  1  0     0  0
 14 15  1  0     0  0
 15 16  1  0     0  0
 16 17  1  0     0  0
 17 18  1  0     0  0
 18 19  1  0     0  0
 19 20  1  0     0  0
 20 21  1  0     0  0
 21 22  1  0     0  0
 22 23  1  0     0  0
 23 24  1  0     0  0
 24 25  1  0     0  0
 25 26  1  0     0  0
M  END
> <standard_type>
IC50

> <# Confs.>
25

> <canonical_smiles>
OC([C@H](CO)O1)=C(C(SCCCCCCCCCCCCCC)=O)C1=O

> <standard_relation>
=

> <predicted_activity_value>
5.552841968657781

> <actual_activity_value>
5.363512103646634

> <Compound>
13

> <publication_ID>
nan

> <standard_units>
nM

> hash
3392954433531072424

$$$$
13_
XXILIB    08252103493D 0   0.00000     0.00000

 26 26  0     1  0            999 V2000
    6.0577   -0.0000   -2.8128 S   0  0  0  0  0  2           0  0  0
    5.6104   -0.5170   -5.3417 O   0  0  0  0  0  2           0  0  0
    8.7278    1.4836   -2.9922 O   0  0  0  0  0  2           0  0  0
    9.6351    1.8171   -5.0635 O   0  0  0  0  0  2           0  0  0
    7.3689    0.3100   -7.3679 O   0  0  0  0  0  2           0  0  0
   11.6490    1.2957   -6.9954 O   0  0  0  0  0  2           0  0  0
    6.3726    0.0000   -4.5331 C   0  0  0  0  0  4           0  0  0
    4.2373    0.0000   -2.8113 C   0  0  0  0  0  4           0  0  0
    8.6834    1.3438   -4.2023 C   0  0  0  0  0  4           0  0  0
    8.0113    0.7595   -6.2493 C   0  0  0  0  0  4           0  0  0
    9.2949    1.4680   -6.4125 C   0  0  2  0  0  4           0  0  0
   10.4053    0.6026   -6.9932 C   0  0  0  0  0  4           0  0  0
    7.6226    0.6625   -4.9744 C   0  0  0  0  0  4           0  0  0
    3.6452    0.0000   -1.4064 C   0  0  0  0  0  4           0  0  0
    2.1190    0.0000   -1.4064 C   0  0  0  0  0  4           0  0  0
    1.5262   -0.0000   -0.0000 C   0  0  0  0  0  4           0  0  0
    0.0000    0.0000    0.0000 C   0  0  0  0  0  4           0  0  0
   -0.5927   -0.0000    1.4064 C   0  0  0  0  0  4           0  0  0
   -2.1190   -0.0000    1.4064 C   0  0  0  0  0  4           0  0  0
   -2.7117    0.0000    2.8129 C   0  0  0  0  0  4           0  0  0
   -4.2380   -0.0000    2.8129 C   0  0  0  0  0  4           0  0  0
   -4.8307    0.0000    4.2193 C   0  0  0  0  0  4           0  0  0
   -6.3569   -0.0000    4.2193 C   0  0  0  0  0  4           0  0  0
   -6.9497    0.0000    5.6258 C   0  0  0  0  0  4           0  0  0
   -8.4759   -0.0000    5.6258 C   0  0  0  0  0  4           0  0  0
   -9.0656    0.0000    7.0283 C   0  0  0  0  0  4           0  0  0
  1  7  1  0     0  0
  1  8  1  0     0  0
  2  7  2  0     0  0
  3  9  2  0     0  0
  4  9  1  0     0  0
  4 11  1  0     0  0
  5 10  1  0     0  0
  6 12  1  0     0  0
  7 13  1  0     0  0
  8 14  1  0     0  0
  9 13  1  0     0  0
 10 11  1  0     0  0
 10 13  2  0     0  0
 11 12  1  0     0  0
 14 15  1  0     0  0
 15 16  1  0     0  0
 16 17  1  0     0  0
 17 18  1  0     0  0
 18 19  1  0     0  0
 19 20  1  0     0  0
 20 21  1  0     0  0
 21 22  1  0     0  0
 22 23  1  0     0  0
 23 24  1  0     0  0
 24 25  1  0     0  0
 25 26  1  0     0  0
M  END
> <standard_type>
IC50

> <# Confs.>
25

> <canonical_smiles>
OC([C@H](CO)O1)=C(C(SCCCCCCCCCCCCCC)=O)C1=O

> <standard_relation>
=

> <predicted_activity_value>
5.552841968657781

> <actual_activity_value>
5.363512103646634

> <Compound>
13

> <publication_ID>
nan

> <standard_units>
nM

> hash
3392954433531072424

$$$$
13_
XXILIB    08252103493D 0   0.00000     0.00000

 26 26  0     1  0            999 V2000
    3.7397    1.4522   -3.7897 S   0  0  0  0  0  2           0  0  0
    5.2704    0.1276   -5.4525 O   0  0  0  0  0  2           0  0  0
    2.9706    3.8623   -5.5110 O   0  0  0  0  0  2           0  0  0
    3.7753    3.9573   -7.6483 O   0  0  0  0  0  2           0  0  0
    5.7654    1.0277   -8.0653 O   0  0  0  0  0  2           0  0  0
    5.4485    5.1434   -9.6113 O   0  0  0  0  0  2           0  0  0
    4.5770    1.1250   -5.2899 C   0  0  0  0  0  4           0  0  0
    4.2373    0.0000   -2.8113 C   0  0  0  0  0  4           0  0  0
    3.6373    3.3856   -6.4132 C   0  0  0  0  0  4           0  0  0
    4.9695    2.0259   -7.5793 C   0  0  0  0  0  4           0  0  0
    4.6389    3.1567   -8.4672 C   0  0  2  0  0  4           0  0  0
    5.8457    3.9914   -8.8748 C   0  0  0  0  0  4           0  0  0
    4.4079    2.1246   -6.3707 C   0  0  0  0  0  4           0  0  0
    3.6452   -0.0000   -1.4064 C   0  0  0  0  0  4           0  0  0
    2.1190    0.0000   -1.4064 C   0  0  0  0  0  4           0  0  0
    1.5262   -0.0000    0.0000 C   0  0  0  0  0  4           0  0  0
    0.0000    0.0000    0.0000 C   0  0  0  0  0  4           0  0  0
   -0.5927   -0.0000    1.4064 C   0  0  0  0  0  4           0  0  0
   -2.1190   -0.0000    1.4064 C   0  0  0  0  0  4           0  0  0
   -2.7117    0.0000    2.8129 C   0  0  0  0  0  4           0  0  0
   -4.2380   -0.0000    2.8129 C   0  0  0  0  0  4           0  0  0
   -4.8307    0.0000    4.2193 C   0  0  0  0  0  4           0  0  0
   -6.3569   -0.0000    4.2193 C   0  0  0  0  0  4           0  0  0
   -6.9497    0.0000    5.6258 C   0  0  0  0  0  4           0  0  0
   -8.4759   -0.0000    5.6258 C   0  0  0  0  0  4           0  0  0
   -9.0656    0.0000    7.0283 C   0  0  0  0  0  4           0  0  0
  1  7  1  0     0  0
  1  8  1  0     0  0
  2  7  2  0     0  0
  3  9  2  0     0  0
  4  9  1  0     0  0
  4 11  1  0     0  0
  5 10  1  0     0  0
  6 12  1  0     0  0
  7 13  1  0     0  0
  8 14  1  0     0  0
  9 13  1  0     0  0
 10 11  1  0     0  0
 10 13  2  0     0  0
 11 12  1  0     0  0
 14 15  1  0     0  0
 15 16  1  0     0  0
 16 17  1  0     0  0
 17 18  1  0     0  0
 18 19  1  0     0  0
 19 20  1  0     0  0
 20 21  1  0     0  0
 21 22  1  0     0  0
 22 23  1  0     0  0
 23 24  1  0     0  0
 24 25  1  0     0  0
 25 26  1  0     0  0
M  END
> <standard_type>
IC50

> <# Confs.>
25

> <canonical_smiles>
OC([C@H](CO)O1)=C(C(SCCCCCCCCCCCCCC)=O)C1=O

> <standard_relation>
=

> <predicted_activity_value>
5.552841968657781

> <actual_activity_value>
5.363512103646634

> <Compound>
13

> <publication_ID>
nan

> <standard_units>
nM

> hash
3392954433531072424

$$$$
13_
XXILIB    08252103493D 0   0.00000     0.00000

 26 26  0     1  0            999 V2000
    6.0577   -0.0000   -2.8128 S   0  0  0  0  0  2           0  0  0
    5.6104    0.5170   -5.3417 O   0  0  0  0  0  2           0  0  0
    8.7157   -1.5048   -2.9944 O   0  0  0  0  0  2           0  0  0
    9.6517   -1.7879   -5.0604 O   0  0  0  0  0  2           0  0  0
    7.4022   -0.2516   -7.3618 O   0  0  0  0  0  2           0  0  0
   10.4182   -3.4629   -7.2207 O   0  0  0  0  0  2           0  0  0
    6.3726    0.0000   -4.5331 C   0  0  0  0  0  4           0  0  0
    4.2373    0.0000   -2.8113 C   0  0  0  0  0  4           0  0  0
    8.6809   -1.3482   -4.2027 C   0  0  0  0  0  4           0  0  0
    8.0175   -0.7485   -6.2482 C   0  0  0  0  0  4           0  0  0
    9.2982   -1.4622   -6.4119 C   0  0  2  0  0  4           0  0  0
    9.1856   -2.7503   -7.2166 C   0  0  0  0  0  4           0  0  0
    7.6213   -0.6647   -4.9746 C   0  0  0  0  0  4           0  0  0
    3.6452    0.0000   -1.4064 C   0  0  0  0  0  4           0  0  0
    2.1190    0.0000   -1.4064 C   0  0  0  0  0  4           0  0  0
    1.5262   -0.0000   -0.0000 C   0  0  0  0  0  4           0  0  0
    0.0000    0.0000    0.0000 C   0  0  0  0  0  4           0  0  0
   -0.5927   -0.0000    1.4064 C   0  0  0  0  0  4           0  0  0
   -2.1190   -0.0000    1.4064 C   0  0  0  0  0  4           0  0  0
   -2.7117    0.0000    2.8129 C   0  0  0  0  0  4           0  0  0
   -4.2380   -0.0000    2.8129 C   0  0  0  0  0  4           0  0  0
   -4.8307    0.0000    4.2193 C   0  0  0  0  0  4           0  0  0
   -6.3569   -0.0000    4.2193 C   0  0  0  0  0  4           0  0  0
   -6.9497    0.0000    5.6258 C   0  0  0  0  0  4           0  0  0
   -8.4759   -0.0000    5.6258 C   0  0  0  0  0  4           0  0  0
   -9.0656    0.0000    7.0283 C   0  0  0  0  0  4           0  0  0
  1  7  1  0     0  0
  1  8  1  0     0  0
  2  7  2  0     0  0
  3  9  2  0     0  0
  4  9  1  0     0  0
  4 11  1  0     0  0
  5 10  1  0     0  0
  6 12  1  0     0  0
  7 13  1  0     0  0
  8 14  1  0     0  0
  9 13  1  0     0  0
 10 11  1  0     0  0
 10 13  2  0     0  0
 11 12  1  0     0  0
 14 15  1  0     0  0
 15 16  1  0     0  0
 16 17  1  0     0  0
 17 18  1  0     0  0
 18 19  1  0     0  0
 19 20  1  0     0  0
 20 21  1  0     0  0
 21 22  1  0     0  0
 22 23  1  0     0  0
 23 24  1  0     0  0
 24 25  1  0     0  0
 25 26  1  0     0  0
M  END
> <standard_type>
IC50

> <# Confs.>
25

> <canonical_smiles>
OC([C@H](CO)O1)=C(C(SCCCCCCCCCCCCCC)=O)C1=O

> <standard_relation>
=

> <predicted_activity_value>
5.552841968657781

> <actual_activity_value>
5.363512103646634

> <Compound>
13

> <publication_ID>
nan

> <standard_units>
nM

> hash
3392954433531072424

$$$$
13_
XXILIB    08252103493D 0   0.00000     0.00000

 26 26  0     1  0            999 V2000
    1.7957    2.6703   -4.6090 S   0  0  0  0  0  2           0  0  0
    3.3264    1.3457   -6.2718 O   0  0  0  0  0  2           0  0  0
    1.0265    5.0803   -6.3303 O   0  0  0  0  0  2           0  0  0
    1.8312    5.1754   -8.4676 O   0  0  0  0  0  2           0  0  0
    3.8213    2.2457   -8.8846 O   0  0  0  0  0  2           0  0  0
    3.5045    6.3614  -10.4306 O   0  0  0  0  0  2           0  0  0
    2.6329    2.3430   -6.1092 C   0  0  0  0  0  4           0  0  0
    2.2932    1.2180   -3.6306 C   0  0  0  0  0  4           0  0  0
    1.6932    4.6036   -7.2325 C   0  0  0  0  0  4           0  0  0
    3.0255    3.2439   -8.3987 C   0  0  0  0  0  4           0  0  0
    2.6949    4.3747   -9.2865 C   0  0  2  0  0  4           0  0  0
    3.9017    5.2094   -9.6941 C   0  0  0  0  0  4           0  0  0
    2.4638    3.3426   -7.1900 C   0  0  0  0  0  4           0  0  0
    1.7011    1.2180   -2.2258 C   0  0  0  0  0  4           0  0  0
    2.1190    0.0000   -1.4064 C   0  0  0  0  0  4           0  0  0
    1.5262    0.0000    0.0000 C   0  0  0  0  0  4           0  0  0
    0.0000    0.0000    0.0000 C   0  0  0  0  0  4           0  0  0
   -0.5927   -0.0000    1.4064 C   0  0  0  0  0  4           0  0  0
   -2.1190   -0.0000    1.4064 C   0  0  0  0  0  4           0  0  0
   -2.7117    0.0000    2.8129 C   0  0  0  0  0  4           0  0  0
   -4.2380   -0.0000    2.8129 C   0  0  0  0  0  4           0  0  0
   -4.8307    0.0000    4.2193 C   0  0  0  0  0  4           0  0  0
   -6.3569   -0.0000    4.2193 C   0  0  0  0  0  4           0  0  0
   -6.9497    0.0000    5.6258 C   0  0  0  0  0  4           0  0  0
   -8.4759   -0.0000    5.6258 C   0  0  0  0  0  4           0  0  0
   -9.0656    0.0000    7.0283 C   0  0  0  0  0  4           0  0  0
  1  7  1  0     0  0
  1  8  1  0     0  0
  2  7  2  0     0  0
  3  9  2  0     0  0
  4  9  1  0     0  0
  4 11  1  0     0  0
  5 10  1  0     0  0
  6 12  1  0     0  0
  7 13  1  0     0  0
  8 14  1  0     0  0
  9 13  1  0     0  0
 10 11  1  0     0  0
 10 13  2  0     0  0
 11 12  1  0     0  0
 14 15  1  0     0  0
 15 16  1  0     0  0
 16 17  1  0     0  0
 17 18  1  0     0  0
 18 19  1  0     0  0
 19 20  1  0     0  0
 20 21  1  0     0  0
 21 22  1  0     0  0
 22 23  1  0     0  0
 23 24  1  0     0  0
 24 25  1  0     0  0
 25 26  1  0     0  0
M  END
> <standard_type>
IC50

> <# Confs.>
25

> <canonical_smiles>
OC([C@H](CO)O1)=C(C(SCCCCCCCCCCCCCC)=O)C1=O

> <standard_relation>
=

> <predicted_activity_value>
5.552841968657781

> <actual_activity_value>
5.363512103646634

> <Compound>
13

> <publication_ID>
nan

> <standard_units>
nM

> hash
3392954433531072424

$$$$
13_
XXILIB    08252103493D 0   0.00000     0.00000

 26 26  0     1  0            999 V2000
    6.0577   -2.4360    1.4064 S   0  0  0  0  0  2           0  0  0
    5.4741   -4.6477    2.6833 O   0  0  0  0  0  2           0  0  0
    9.1156   -2.5237    1.4712 O   0  0  0  0  0  2           0  0  0
   10.1185   -4.3169    2.4729 O   0  0  0  0  0  2           0  0  0
    7.4596   -6.3833    3.6464 O   0  0  0  0  0  2           0  0  0
   11.6607   -5.4307    4.5802 O   0  0  0  0  0  2           0  0  0
    6.3726   -3.9258    2.2666 C   0  0  0  0  0  4           0  0  0
    4.2373   -2.4347    1.4057 C   0  0  0  0  0  4           0  0  0
    9.0369   -3.5819    2.0710 C   0  0  0  0  0  4           0  0  0
    8.2132   -5.3832    3.1007 C   0  0  0  0  0  4           0  0  0
    9.6827   -5.4936    3.1678 C   0  0  2  0  0  4           0  0  0
   10.2373   -5.4630    4.5859 C   0  0  0  0  0  4           0  0  0
    7.7968   -4.2797    2.4723 C   0  0  0  0  0  4           0  0  0
    3.6452   -1.2180    0.7032 C   0  0  0  0  0  4           0  0  0
    2.1190   -1.2180    0.7032 C   0  0  0  0  0  4           0  0  0
    1.5262    0.0000    0.0000 C   0  0  0  0  0  4           0  0  0
    0.0000    0.0000    0.0000 C   0  0  0  0  0  4           0  0  0
   -0.5927   -0.0000    1.4064 C   0  0  0  0  0  4           0  0  0
   -2.1190   -0.0000    1.4064 C   0  0  0  0  0  4           0  0  0
   -2.7117    0.0000    2.8129 C   0  0  0  0  0  4           0  0  0
   -4.2380   -0.0000    2.8129 C   0  0  0  0  0  4           0  0  0
   -4.8307    0.0000    4.2193 C   0  0  0  0  0  4           0  0  0
   -6.3569   -0.0000    4.2193 C   0  0  0  0  0  4           0  0  0
   -6.9497    0.0000    5.6258 C   0  0  0  0  0  4           0  0  0
   -8.4759   -0.0000    5.6258 C   0  0  0  0  0  4           0  0  0
   -9.0656    0.0000    7.0283 C   0  0  0  0  0  4           0  0  0
  1  7  1  0     0  0
  1  8  1  0     0  0
  2  7  2  0     0  0
  3  9  2  0     0  0
  4  9  1  0     0  0
  4 11  1  0     0  0
  5 10  1  0     0  0
  6 12  1  0     0  0
  7 13  1  0     0  0
  8 14  1  0     0  0
  9 13  1  0     0  0
 10 11  1  0     0  0
 10 13  2  0     0  0
 11 12  1  0     0  0
 14 15  1  0     0  0
 15 16  1  0     0  0
 16 17  1  0     0  0
 17 18  1  0     0  0
 18 19  1  0     0  0
 19 20  1  0     0  0
 20 21  1  0     0  0
 21 22  1  0     0  0
 22 23  1  0     0  0
 23 24  1  0     0  0
 24 25  1  0     0  0
 25 26  1  0     0  0
M  END
> <standard_type>
IC50

> <# Confs.>
25

> <canonical_smiles>
OC([C@H](CO)O1)=C(C(SCCCCCCCCCCCCCC)=O)C1=O

> <standard_relation>
=

> <predicted_activity_value>
5.552841968657781

> <actual_activity_value>
5.363512103646634

> <Compound>
13

> <publication_ID>
nan

> <standard_units>
nM

> hash
3392954433531072424

$$$$
13_
XXILIB    08252103493D 0   0.00000     0.00000

 26 26  0     1  0            999 V2000
    6.0577   -0.0000   -2.8128 S   0  0  0  0  0  2           0  0  0
    5.4741    0.0000   -5.3667 O   0  0  0  0  0  2           0  0  0
    9.1156   -0.0122   -2.9212 O   0  0  0  0  0  2           0  0  0
   10.1185    0.0169   -4.9750 O   0  0  0  0  0  2           0  0  0
    7.4596    0.0338   -7.3513 O   0  0  0  0  0  2           0  0  0
   11.6607   -1.2513   -6.9932 O   0  0  0  0  0  2           0  0  0
    6.3726    0.0000   -4.5331 C   0  0  0  0  0  4           0  0  0
    4.2373    0.0000   -2.8113 C   0  0  0  0  0  4           0  0  0
    9.0369   -0.0026   -4.1375 C   0  0  0  0  0  4           0  0  0
    8.2132    0.0063   -6.2124 C   0  0  0  0  0  4           0  0  0
    9.6827    0.0034   -6.3415 C   0  0  2  0  0  4           0  0  0
   10.2373   -1.2400   -7.0240 C   0  0  0  0  0  4           0  0  0
    7.7968   -0.0013   -4.9425 C   0  0  0  0  0  4           0  0  0
    3.6452    0.0000   -1.4064 C   0  0  0  0  0  4           0  0  0
    2.1190    0.0000   -1.4064 C   0  0  0  0  0  4           0  0  0
    1.5262   -0.0000   -0.0000 C   0  0  0  0  0  4           0  0  0
    0.0000   -0.0000    0.0000 C   0  0  0  0  0  4           0  0  0
   -0.5927    0.0000    1.4064 C   0  0  0  0  0  4           0  0  0
   -0.1749    1.2180    2.2258 C   0  0  0  0  0  4           0  0  0
   -0.7676    1.2180    3.6322 C   0  0  0  0  0  4           0  0  0
   -0.3498    2.4360    4.4515 C   0  0  0  0  0  4           0  0  0
   -0.9425    2.4360    5.8580 C   0  0  0  0  0  4           0  0  0
   -0.5247    3.6540    6.6773 C   0  0  0  0  0  4           0  0  0
   -1.1174    3.6540    8.0837 C   0  0  0  0  0  4           0  0  0
   -0.6996    4.8721    8.9030 C   0  0  0  0  0  4           0  0  0
   -1.2911    4.8710   10.3049 C   0  0  0  0  0  4           0  0  0
  1  7  1  0     0  0
  1  8  1  0     0  0
  2  7  2  0     0  0
  3  9  2  0     0  0
  4  9  1  0     0  0
  4 11  1  0     0  0
  5 10  1  0     0  0
  6 12  1  0     0  0
  7 13  1  0     0  0
  8 14  1  0     0  0
  9 13  1  0     0  0
 10 11  1  0     0  0
 10 13  2  0     0  0
 11 12  1  0     0  0
 14 15  1  0     0  0
 15 16  1  0     0  0
 16 17  1  0     0  0
 17 18  1  0     0  0
 18 19  1  0     0  0
 19 20  1  0     0  0
 20 21  1  0     0  0
 21 22  1  0     0  0
 22 23  1  0     0  0
 23 24  1  0     0  0
 24 25  1  0     0  0
 25 26  1  0     0  0
M  END
> <standard_type>
IC50

> <# Confs.>
25

> <canonical_smiles>
OC([C@H](CO)O1)=C(C(SCCCCCCCCCCCCCC)=O)C1=O

> <standard_relation>
=

> <predicted_activity_value>
5.552841968657781

> <actual_activity_value>
5.363512103646634

> <Compound>
13

> <publication_ID>
nan

> <standard_units>
nM

> hash
3392954433531072424

$$$$
13_
XXILIB    08252103493D 0   0.00000     0.00000

 26 26  0     1  0            999 V2000
    6.0577   -0.0000   -2.8128 S   0  0  0  0  0  2           0  0  0
    5.4741    0.0000   -5.3667 O   0  0  0  0  0  2           0  0  0
    9.1156   -0.0122   -2.9212 O   0  0  0  0  0  2           0  0  0
   10.1185    0.0169   -4.9750 O   0  0  0  0  0  2           0  0  0
    7.4596    0.0338   -7.3513 O   0  0  0  0  0  2           0  0  0
   11.6607   -1.2513   -6.9932 O   0  0  0  0  0  2           0  0  0
    6.3726    0.0000   -4.5331 C   0  0  0  0  0  4           0  0  0
    4.2373    0.0000   -2.8113 C   0  0  0  0  0  4           0  0  0
    9.0369   -0.0026   -4.1375 C   0  0  0  0  0  4           0  0  0
    8.2132    0.0063   -6.2124 C   0  0  0  0  0  4           0  0  0
    9.6827    0.0034   -6.3415 C   0  0  2  0  0  4           0  0  0
   10.2373   -1.2400   -7.0240 C   0  0  0  0  0  4           0  0  0
    7.7968   -0.0013   -4.9425 C   0  0  0  0  0  4           0  0  0
    3.6452    0.0000   -1.4064 C   0  0  0  0  0  4           0  0  0
    2.1190    0.0000   -1.4064 C   0  0  0  0  0  4           0  0  0
    1.5262   -0.0000   -0.0000 C   0  0  0  0  0  4           0  0  0
    0.0000   -0.0000    0.0000 C   0  0  0  0  0  4           0  0  0
   -0.5927   -0.0000    1.4064 C   0  0  0  0  0  4           0  0  0
   -2.1190   -0.0000    1.4064 C   0  0  0  0  0  4           0  0  0
   -2.7117   -1.2180    0.7032 C   0  0  0  0  0  4           0  0  0
   -4.2380   -1.2180    0.7032 C   0  0  0  0  0  4           0  0  0
   -4.8307   -2.4360    0.0000 C   0  0  0  0  0  4           0  0  0
   -6.3569   -2.4360    0.0000 C   0  0  0  0  0  4           0  0  0
   -6.9497   -3.6540   -0.7032 C   0  0  0  0  0  4           0  0  0
   -8.4759   -3.6540   -0.7032 C   0  0  0  0  0  4           0  0  0
   -9.0656   -4.8687   -1.4045 C   0  0  0  0  0  4           0  0  0
  1  7  1  0     0  0
  1  8  1  0     0  0
  2  7  2  0     0  0
  3  9  2  0     0  0
  4  9  1  0     0  0
  4 11  1  0     0  0
  5 10  1  0     0  0
  6 12  1  0     0  0
  7 13  1  0     0  0
  8 14  1  0     0  0
  9 13  1  0     0  0
 10 11  1  0     0  0
 10 13  2  0     0  0
 11 12  1  0     0  0
 14 15  1  0     0  0
 15 16  1  0     0  0
 16 17  1  0     0  0
 17 18  1  0     0  0
 18 19  1  0     0  0
 19 20  1  0     0  0
 20 21  1  0     0  0
 21 22  1  0     0  0
 22 23  1  0     0  0
 23 24  1  0     0  0
 24 25  1  0     0  0
 25 26  1  0     0  0
M  END
> <standard_type>
IC50

> <# Confs.>
25

> <canonical_smiles>
OC([C@H](CO)O1)=C(C(SCCCCCCCCCCCCCC)=O)C1=O

> <standard_relation>
=

> <predicted_activity_value>
5.552841968657781

> <actual_activity_value>
5.363512103646634

> <Compound>
13

> <publication_ID>
nan

> <standard_units>
nM

> hash
3392954433531072424

$$$$
13_
XXILIB    08252103493D 0   0.00000     0.00000

 26 26  0     1  0            999 V2000
    6.0577   -0.0000   -2.8128 S   0  0  0  0  0  2           0  0  0
    5.4741    0.0000   -5.3667 O   0  0  0  0  0  2           0  0  0
    9.1156   -0.0122   -2.9212 O   0  0  0  0  0  2           0  0  0
   10.1185    0.0169   -4.9750 O   0  0  0  0  0  2           0  0  0
    7.4596    0.0338   -7.3513 O   0  0  0  0  0  2           0  0  0
   11.6607   -1.2513   -6.9932 O   0  0  0  0  0  2           0  0  0
    6.3726    0.0000   -4.5331 C   0  0  0  0  0  4           0  0  0
    4.2373    0.0000   -2.8113 C   0  0  0  0  0  4           0  0  0
    9.0369   -0.0026   -4.1375 C   0  0  0  0  0  4           0  0  0
    8.2132    0.0063   -6.2124 C   0  0  0  0  0  4           0  0  0
    9.6827    0.0034   -6.3415 C   0  0  2  0  0  4           0  0  0
   10.2373   -1.2400   -7.0240 C   0  0  0  0  0  4           0  0  0
    7.7968   -0.0013   -4.9425 C   0  0  0  0  0  4           0  0  0
    3.6452    0.0000   -1.4064 C   0  0  0  0  0  4           0  0  0
    2.1190    0.0000   -1.4064 C   0  0  0  0  0  4           0  0  0
    1.5262   -0.0000   -0.0000 C   0  0  0  0  0  4           0  0  0
    0.0000   -0.0000    0.0000 C   0  0  0  0  0  4           0  0  0
   -0.5927    0.0000    1.4064 C   0  0  0  0  0  4           0  0  0
   -2.1190   -0.0000    1.4064 C   0  0  0  0  0  4           0  0  0
   -2.7117    0.0000    2.8129 C   0  0  0  0  0  4           0  0  0
   -2.2939    1.2180    3.6322 C   0  0  0  0  0  4           0  0  0
   -2.8866    1.2180    5.0386 C   0  0  0  0  0  4           0  0  0
   -2.4688    2.4360    5.8580 C   0  0  0  0  0  4           0  0  0
   -3.0615    2.4360    7.2644 C   0  0  0  0  0  4           0  0  0
   -2.6437    3.6540    8.0837 C   0  0  0  0  0  4           0  0  0
   -3.2352    3.6530    9.4855 C   0  0  0  0  0  4           0  0  0
  1  7  1  0     0  0
  1  8  1  0     0  0
  2  7  2  0     0  0
  3  9  2  0     0  0
  4  9  1  0     0  0
  4 11  1  0     0  0
  5 10  1  0     0  0
  6 12  1  0     0  0
  7 13  1  0     0  0
  8 14  1  0     0  0
  9 13  1  0     0  0
 10 11  1  0     0  0
 10 13  2  0     0  0
 11 12  1  0     0  0
 14 15  1  0     0  0
 15 16  1  0     0  0
 16 17  1  0     0  0
 17 18  1  0     0  0
 18 19  1  0     0  0
 19 20  1  0     0  0
 20 21  1  0     0  0
 21 22  1  0     0  0
 22 23  1  0     0  0
 23 24  1  0     0  0
 24 25  1  0     0  0
 25 26  1  0     0  0
M  END
> <standard_type>
IC50

> <# Confs.>
25

> <canonical_smiles>
OC([C@H](CO)O1)=C(C(SCCCCCCCCCCCCCC)=O)C1=O

> <standard_relation>
=

> <predicted_activity_value>
5.552841968657781

> <actual_activity_value>
5.363512103646634

> <Compound>
13

> <publication_ID>
nan

> <standard_units>
nM

> hash
3392954433531072424

$$$$
13_
XXILIB    08252103493D 0   0.00000     0.00000

 26 26  0     1  0            999 V2000
    6.0577   -0.0000   -2.8128 S   0  0  0  0  0  2           0  0  0
    5.4741    0.0000   -5.3667 O   0  0  0  0  0  2           0  0  0
    9.1156   -0.0122   -2.9212 O   0  0  0  0  0  2           0  0  0
   10.1185    0.0169   -4.9750 O   0  0  0  0  0  2           0  0  0
    7.4596    0.0338   -7.3513 O   0  0  0  0  0  2           0  0  0
   11.6607   -1.2513   -6.9932 O   0  0  0  0  0  2           0  0  0
    6.3726    0.0000   -4.5331 C   0  0  0  0  0  4           0  0  0
    4.2373    0.0000   -2.8113 C   0  0  0  0  0  4           0  0  0
    9.0369   -0.0026   -4.1375 C   0  0  0  0  0  4           0  0  0
    8.2132    0.0063   -6.2124 C   0  0  0  0  0  4           0  0  0
    9.6827    0.0034   -6.3415 C   0  0  2  0  0  4           0  0  0
   10.2373   -1.2400   -7.0240 C   0  0  0  0  0  4           0  0  0
    7.7968   -0.0013   -4.9425 C   0  0  0  0  0  4           0  0  0
    3.6452    0.0000   -1.4064 C   0  0  0  0  0  4           0  0  0
    2.1190    0.0000   -1.4064 C   0  0  0  0  0  4           0  0  0
    1.5262   -0.0000   -0.0000 C   0  0  0  0  0  4           0  0  0
    0.0000    0.0000    0.0000 C   0  0  0  0  0  4           0  0  0
   -0.5927    0.0000    1.4064 C   0  0  0  0  0  4           0  0  0
   -2.1190   -0.0000    1.4064 C   0  0  0  0  0  4           0  0  0
   -2.7117    0.0000    2.8129 C   0  0  0  0  0  4           0  0  0
   -4.2380   -0.0000    2.8129 C   0  0  0  0  0  4           0  0  0
   -4.8307   -1.2180    2.1097 C   0  0  0  0  0  4           0  0  0
   -6.3569   -1.2180    2.1097 C   0  0  0  0  0  4           0  0  0
   -6.9497   -2.4360    1.4064 C   0  0  0  0  0  4           0  0  0
   -8.4759   -2.4360    1.4064 C   0  0  0  0  0  4           0  0  0
   -9.0656   -3.6507    0.7052 C   0  0  0  0  0  4           0  0  0
  1  7  1  0     0  0
  1  8  1  0     0  0
  2  7  2  0     0  0
  3  9  2  0     0  0
  4  9  1  0     0  0
  4 11  1  0     0  0
  5 10  1  0     0  0
  6 12  1  0     0  0
  7 13  1  0     0  0
  8 14  1  0     0  0
  9 13  1  0     0  0
 10 11  1  0     0  0
 10 13  2  0     0  0
 11 12  1  0     0  0
 14 15  1  0     0  0
 15 16  1  0     0  0
 16 17  1  0     0  0
 17 18  1  0     0  0
 18 19  1  0     0  0
 19 20  1  0     0  0
 20 21  1  0     0  0
 21 22  1  0     0  0
 22 23  1  0     0  0
 23 24  1  0     0  0
 24 25  1  0     0  0
 25 26  1  0     0  0
M  END
> <standard_type>
IC50

> <# Confs.>
25

> <canonical_smiles>
OC([C@H](CO)O1)=C(C(SCCCCCCCCCCCCCC)=O)C1=O

> <standard_relation>
=

> <predicted_activity_value>
5.552841968657781

> <actual_activity_value>
5.363512103646634

> <Compound>
13

> <publication_ID>
nan

> <standard_units>
nM

> hash
3392954433531072424

$$$$
13_
XXILIB    08252103493D 0   0.00000     0.00000

 26 26  0     1  0            999 V2000
    6.0577   -0.0000   -2.8128 S   0  0  0  0  0  2           0  0  0
    5.4741    0.0000   -5.3667 O   0  0  0  0  0  2           0  0  0
    9.1156   -0.0122   -2.9212 O   0  0  0  0  0  2           0  0  0
   10.1185    0.0169   -4.9750 O   0  0  0  0  0  2           0  0  0
    7.4596    0.0338   -7.3513 O   0  0  0  0  0  2           0  0  0
   11.6607   -1.2513   -6.9932 O   0  0  0  0  0  2           0  0  0
    6.3726    0.0000   -4.5331 C   0  0  0  0  0  4           0  0  0
    4.2373    0.0000   -2.8113 C   0  0  0  0  0  4           0  0  0
    9.0369   -0.0026   -4.1375 C   0  0  0  0  0  4           0  0  0
    8.2132    0.0063   -6.2124 C   0  0  0  0  0  4           0  0  0
    9.6827    0.0034   -6.3415 C   0  0  2  0  0  4           0  0  0
   10.2373   -1.2400   -7.0240 C   0  0  0  0  0  4           0  0  0
    7.7968   -0.0013   -4.9425 C   0  0  0  0  0  4           0  0  0
    3.6452    0.0000   -1.4064 C   0  0  0  0  0  4           0  0  0
    2.1190    0.0000   -1.4064 C   0  0  0  0  0  4           0  0  0
    1.5262   -0.0000   -0.0000 C   0  0  0  0  0  4           0  0  0
    0.0000    0.0000    0.0000 C   0  0  0  0  0  4           0  0  0
   -0.5927   -0.0000    1.4064 C   0  0  0  0  0  4           0  0  0
   -2.1190   -0.0000    1.4064 C   0  0  0  0  0  4           0  0  0
   -2.7117    0.0000    2.8129 C   0  0  0  0  0  4           0  0  0
   -4.2380   -0.0000    2.8129 C   0  0  0  0  0  4           0  0  0
   -4.8307    0.0000    4.2193 C   0  0  0  0  0  4           0  0  0
   -4.4129    1.2180    5.0386 C   0  0  0  0  0  4           0  0  0
   -5.0056    1.2180    6.4451 C   0  0  0  0  0  4           0  0  0
   -4.5878    2.4360    7.2644 C   0  0  0  0  0  4           0  0  0
   -5.1792    2.4349    8.6662 C   0  0  0  0  0  4           0  0  0
  1  7  1  0     0  0
  1  8  1  0     0  0
  2  7  2  0     0  0
  3  9  2  0     0  0
  4  9  1  0     0  0
  4 11  1  0     0  0
  5 10  1  0     0  0
  6 12  1  0     0  0
  7 13  1  0     0  0
  8 14  1  0     0  0
  9 13  1  0     0  0
 10 11  1  0     0  0
 10 13  2  0     0  0
 11 12  1  0     0  0
 14 15  1  0     0  0
 15 16  1  0     0  0
 16 17  1  0     0  0
 17 18  1  0     0  0
 18 19  1  0     0  0
 19 20  1  0     0  0
 20 21  1  0     0  0
 21 22  1  0     0  0
 22 23  1  0     0  0
 23 24  1  0     0  0
 24 25  1  0     0  0
 25 26  1  0     0  0
M  END
> <standard_type>
IC50

> <# Confs.>
25

> <canonical_smiles>
OC([C@H](CO)O1)=C(C(SCCCCCCCCCCCCCC)=O)C1=O

> <standard_relation>
=

> <predicted_activity_value>
5.552841968657781

> <actual_activity_value>
5.363512103646634

> <Compound>
13

> <publication_ID>
nan

> <standard_units>
nM

> hash
3392954433531072424

$$$$
13_
XXILIB    08252103493D 0   0.00000     0.00000

 26 26  0     1  0            999 V2000
    6.0577   -0.0000   -2.8128 S   0  0  0  0  0  2           0  0  0
    5.4741    0.0000   -5.3667 O   0  0  0  0  0  2           0  0  0
    9.1156   -0.0122   -2.9212 O   0  0  0  0  0  2           0  0  0
   10.1185    0.0169   -4.9750 O   0  0  0  0  0  2           0  0  0
    7.4596    0.0338   -7.3513 O   0  0  0  0  0  2           0  0  0
   11.6607   -1.2513   -6.9932 O   0  0  0  0  0  2           0  0  0
    6.3726    0.0000   -4.5331 C   0  0  0  0  0  4           0  0  0
    4.2373    0.0000   -2.8113 C   0  0  0  0  0  4           0  0  0
    9.0369   -0.0026   -4.1375 C   0  0  0  0  0  4           0  0  0
    8.2132    0.0063   -6.2124 C   0  0  0  0  0  4           0  0  0
    9.6827    0.0034   -6.3415 C   0  0  2  0  0  4           0  0  0
   10.2373   -1.2400   -7.0240 C   0  0  0  0  0  4           0  0  0
    7.7968   -0.0013   -4.9425 C   0  0  0  0  0  4           0  0  0
    3.6452    0.0000   -1.4064 C   0  0  0  0  0  4           0  0  0
    2.1190    0.0000   -1.4064 C   0  0  0  0  0  4           0  0  0
    1.5262   -0.0000   -0.0000 C   0  0  0  0  0  4           0  0  0
    0.0000    0.0000    0.0000 C   0  0  0  0  0  4           0  0  0
   -0.5927   -0.0000    1.4064 C   0  0  0  0  0  4           0  0  0
   -2.1190   -0.0000    1.4064 C   0  0  0  0  0  4           0  0  0
   -2.7117    0.0000    2.8129 C   0  0  0  0  0  4           0  0  0
   -4.2380   -0.0000    2.8129 C   0  0  0  0  0  4           0  0  0
   -4.8307    0.0000    4.2193 C   0  0  0  0  0  4           0  0  0
   -6.3569   -0.0000    4.2193 C   0  0  0  0  0  4           0  0  0
   -6.9497   -1.2180    3.5161 C   0  0  0  0  0  4           0  0  0
   -8.4759   -1.2180    3.5161 C   0  0  0  0  0  4           0  0  0
   -9.0656   -2.4327    2.8148 C   0  0  0  0  0  4           0  0  0
  1  7  1  0     0  0
  1  8  1  0     0  0
  2  7  2  0     0  0
  3  9  2  0     0  0
  4  9  1  0     0  0
  4 11  1  0     0  0
  5 10  1  0     0  0
  6 12  1  0     0  0
  7 13  1  0     0  0
  8 14  1  0     0  0
  9 13  1  0     0  0
 10 11  1  0     0  0
 10 13  2  0     0  0
 11 12  1  0     0  0
 14 15  1  0     0  0
 15 16  1  0     0  0
 16 17  1  0     0  0
 17 18  1  0     0  0
 18 19  1  0     0  0
 19 20  1  0     0  0
 20 21  1  0     0  0
 21 22  1  0     0  0
 22 23  1  0     0  0
 23 24  1  0     0  0
 24 25  1  0     0  0
 25 26  1  0     0  0
M  END
> <standard_type>
IC50

> <# Confs.>
25

> <canonical_smiles>
OC([C@H](CO)O1)=C(C(SCCCCCCCCCCCCCC)=O)C1=O

> <standard_relation>
=

> <predicted_activity_value>
5.552841968657781

> <actual_activity_value>
5.363512103646634

> <Compound>
13

> <publication_ID>
nan

> <standard_units>
nM

> hash
3392954433531072424

$$$$
13_
XXILIB    08252103493D 0   0.00000     0.00000

 26 26  0     1  0            999 V2000
    1.7957   -2.6703   -4.6090 S   0  0  0  0  0  2           0  0  0
    3.3264   -1.3457   -6.2718 O   0  0  0  0  0  2           0  0  0
    1.0070   -5.0680   -6.3385 O   0  0  0  0  0  2           0  0  0
    1.8581   -5.1922   -8.4562 O   0  0  0  0  0  2           0  0  0
    3.8752   -2.2795   -8.8619 O   0  0  0  0  0  2           0  0  0
    1.5073   -5.1101  -11.2723 O   0  0  0  0  0  2           0  0  0
    2.6329   -2.3430   -6.1092 C   0  0  0  0  0  4           0  0  0
    2.2932   -1.2180   -3.6306 C   0  0  0  0  0  4           0  0  0
    1.6892   -4.6010   -7.2342 C   0  0  0  0  0  4           0  0  0
    3.0355   -3.2502   -8.3944 C   0  0  0  0  0  4           0  0  0
    2.7002   -4.3781   -9.2842 C   0  0  2  0  0  4           0  0  0
    1.9225   -3.9694  -10.5282 C   0  0  0  0  0  4           0  0  0
    2.4618   -3.3413   -7.1909 C   0  0  0  0  0  4           0  0  0
    1.7011   -1.2180   -2.2258 C   0  0  0  0  0  4           0  0  0
    2.1190    0.0000   -1.4064 C   0  0  0  0  0  4           0  0  0
    1.5262    0.0000   -0.0000 C   0  0  0  0  0  4           0  0  0
    0.0000    0.0000    0.0000 C   0  0  0  0  0  4           0  0  0
   -0.5927   -0.0000    1.4064 C   0  0  0  0  0  4           0  0  0
   -2.1190   -0.0000    1.4064 C   0  0  0  0  0  4           0  0  0
   -2.7117    0.0000    2.8129 C   0  0  0  0  0  4           0  0  0
   -4.2380   -0.0000    2.8129 C   0  0  0  0  0  4           0  0  0
   -4.8307    0.0000    4.2193 C   0  0  0  0  0  4           0  0  0
   -6.3569   -0.0000    4.2193 C   0  0  0  0  0  4           0  0  0
   -6.9497    0.0000    5.6258 C   0  0  0  0  0  4           0  0  0
   -8.4759   -0.0000    5.6258 C   0  0  0  0  0  4           0  0  0
   -9.0656    0.0000    7.0283 C   0  0  0  0  0  4           0  0  0
  1  7  1  0     0  0
  1  8  1  0     0  0
  2  7  2  0     0  0
  3  9  2  0     0  0
  4  9  1  0     0  0
  4 11  1  0     0  0
  5 10  1  0     0  0
  6 12  1  0     0  0
  7 13  1  0     0  0
  8 14  1  0     0  0
  9 13  1  0     0  0
 10 11  1  0     0  0
 10 13  2  0     0  0
 11 12  1  0     0  0
 14 15  1  0     0  0
 15 16  1  0     0  0
 16 17  1  0     0  0
 17 18  1  0     0  0
 18 19  1  0     0  0
 19 20  1  0     0  0
 20 21  1  0     0  0
 21 22  1  0     0  0
 22 23  1  0     0  0
 23 24  1  0     0  0
 24 25  1  0     0  0
 25 26  1  0     0  0
M  END
> <standard_type>
IC50

> <# Confs.>
25

> <canonical_smiles>
OC([C@H](CO)O1)=C(C(SCCCCCCCCCCCCCC)=O)C1=O

> <standard_relation>
=

> <predicted_activity_value>
5.552841968657781

> <actual_activity_value>
5.363512103646634

> <Compound>
13

> <publication_ID>
nan

> <standard_units>
nM

> hash
3392954433531072424

$$$$
13_
XXILIB    08252103493D 0   0.00000     0.00000

 26 26  0     1  0            999 V2000
    6.0577    2.4360    1.4064 S   0  0  0  0  0  2           0  0  0
    5.4741    4.6477    2.6833 O   0  0  0  0  0  2           0  0  0
    9.1156    2.5360    1.4500 O   0  0  0  0  0  2           0  0  0
   10.1185    4.3000    2.5021 O   0  0  0  0  0  2           0  0  0
    7.4596    6.3496    3.7049 O   0  0  0  0  0  2           0  0  0
   11.6607    6.6819    2.4130 O   0  0  0  0  0  2           0  0  0
    6.3726    3.9258    2.2666 C   0  0  0  0  0  4           0  0  0
    4.2373    2.4347    1.4057 C   0  0  0  0  0  4           0  0  0
    9.0369    3.5845    2.0666 C   0  0  0  0  0  4           0  0  0
    8.2132    5.3769    3.1116 C   0  0  0  0  0  4           0  0  0
    9.6827    5.4902    3.1737 C   0  0  2  0  0  4           0  0  0
   10.2373    6.7030    2.4381 C   0  0  0  0  0  4           0  0  0
    7.7968    4.2809    2.4701 C   0  0  0  0  0  4           0  0  0
    3.6452    1.2180    0.7032 C   0  0  0  0  0  4           0  0  0
    2.1190    1.2180    0.7032 C   0  0  0  0  0  4           0  0  0
    1.5262    0.0000   -0.0000 C   0  0  0  0  0  4           0  0  0
    0.0000    0.0000    0.0000 C   0  0  0  0  0  4           0  0  0
   -0.5927   -0.0000    1.4064 C   0  0  0  0  0  4           0  0  0
   -2.1190   -0.0000    1.4064 C   0  0  0  0  0  4           0  0  0
   -2.7117    0.0000    2.8129 C   0  0  0  0  0  4           0  0  0
   -4.2380   -0.0000    2.8129 C   0  0  0  0  0  4           0  0  0
   -4.8307    0.0000    4.2193 C   0  0  0  0  0  4           0  0  0
   -6.3569   -0.0000    4.2193 C   0  0  0  0  0  4           0  0  0
   -6.9497    0.0000    5.6258 C   0  0  0  0  0  4           0  0  0
   -8.4759   -0.0000    5.6258 C   0  0  0  0  0  4           0  0  0
   -9.0656    0.0000    7.0283 C   0  0  0  0  0  4           0  0  0
  1  7  1  0     0  0
  1  8  1  0     0  0
  2  7  2  0     0  0
  3  9  2  0     0  0
  4  9  1  0     0  0
  4 11  1  0     0  0
  5 10  1  0     0  0
  6 12  1  0     0  0
  7 13  1  0     0  0
  8 14  1  0     0  0
  9 13  1  0     0  0
 10 11  1  0     0  0
 10 13  2  0     0  0
 11 12  1  0     0  0
 14 15  1  0     0  0
 15 16  1  0     0  0
 16 17  1  0     0  0
 17 18  1  0     0  0
 18 19  1  0     0  0
 19 20  1  0     0  0
 20 21  1  0     0  0
 21 22  1  0     0  0
 22 23  1  0     0  0
 23 24  1  0     0  0
 24 25  1  0     0  0
 25 26  1  0     0  0
M  END
> <standard_type>
IC50

> <# Confs.>
25

> <canonical_smiles>
OC([C@H](CO)O1)=C(C(SCCCCCCCCCCCCCC)=O)C1=O

> <standard_relation>
=

> <predicted_activity_value>
5.552841968657781

> <actual_activity_value>
5.363512103646634

> <Compound>
13

> <publication_ID>
nan

> <standard_units>
nM

> hash
3392954433531072424

$$$$
13_
XXILIB    08252103493D 0   0.00000     0.00000

 26 26  0     1  0            999 V2000
    6.0577   -0.0000   -2.8128 S   0  0  0  0  0  2           0  0  0
    5.4741    0.0000   -5.3667 O   0  0  0  0  0  2           0  0  0
    9.1156   -0.0122   -2.9212 O   0  0  0  0  0  2           0  0  0
   10.1185    0.0169   -4.9750 O   0  0  0  0  0  2           0  0  0
    7.4596    0.0338   -7.3513 O   0  0  0  0  0  2           0  0  0
   11.6607   -1.2513   -6.9932 O   0  0  0  0  0  2           0  0  0
    6.3726    0.0000   -4.5331 C   0  0  0  0  0  4           0  0  0
    4.2373    0.0000   -2.8113 C   0  0  0  0  0  4           0  0  0
    9.0369   -0.0026   -4.1375 C   0  0  0  0  0  4           0  0  0
    8.2132    0.0063   -6.2124 C   0  0  0  0  0  4           0  0  0
    9.6827    0.0034   -6.3415 C   0  0  2  0  0  4           0  0  0
   10.2373   -1.2400   -7.0240 C   0  0  0  0  0  4           0  0  0
    7.7968   -0.0013   -4.9425 C   0  0  0  0  0  4           0  0  0
    3.6452    0.0000   -1.4064 C   0  0  0  0  0  4           0  0  0
    2.1190    0.0000   -1.4064 C   0  0  0  0  0  4           0  0  0
    1.5262   -0.0000   -0.0000 C   0  0  0  0  0  4           0  0  0
   -0.0000    0.0000    0.0000 C   0  0  0  0  0  4           0  0  0
   -0.5927    0.0000    1.4064 C   0  0  0  0  0  4           0  0  0
   -0.1749   -1.2180    2.2258 C   0  0  0  0  0  4           0  0  0
   -0.7676   -1.2180    3.6322 C   0  0  0  0  0  4           0  0  0
   -0.3498   -2.4360    4.4515 C   0  0  0  0  0  4           0  0  0
   -0.9425   -2.4360    5.8580 C   0  0  0  0  0  4           0  0  0
   -0.5247   -3.6540    6.6773 C   0  0  0  0  0  4           0  0  0
   -1.1174   -3.6540    8.0837 C   0  0  0  0  0  4           0  0  0
   -0.6996   -4.8721    8.9030 C   0  0  0  0  0  4           0  0  0
   -1.2911   -4.8710   10.3049 C   0  0  0  0  0  4           0  0  0
  1  7  1  0     0  0
  1  8  1  0     0  0
  2  7  2  0     0  0
  3  9  2  0     0  0
  4  9  1  0     0  0
  4 11  1  0     0  0
  5 10  1  0     0  0
  6 12  1  0     0  0
  7 13  1  0     0  0
  8 14  1  0     0  0
  9 13  1  0     0  0
 10 11  1  0     0  0
 10 13  2  0     0  0
 11 12  1  0     0  0
 14 15  1  0     0  0
 15 16  1  0     0  0
 16 17  1  0     0  0
 17 18  1  0     0  0
 18 19  1  0     0  0
 19 20  1  0     0  0
 20 21  1  0     0  0
 21 22  1  0     0  0
 22 23  1  0     0  0
 23 24  1  0     0  0
 24 25  1  0     0  0
 25 26  1  0     0  0
M  END
> <standard_type>
IC50

> <# Confs.>
25

> <canonical_smiles>
OC([C@H](CO)O1)=C(C(SCCCCCCCCCCCCCC)=O)C1=O

> <standard_relation>
=

> <predicted_activity_value>
5.552841968657781

> <actual_activity_value>
5.363512103646634

> <Compound>
13

> <publication_ID>
nan

> <standard_units>
nM

> hash
3392954433531072424

$$$$
13_
XXILIB    08252103493D 0   0.00000     0.00000

 26 26  0     1  0            999 V2000
    6.0577   -0.0000   -2.8128 S   0  0  0  0  0  2           0  0  0
    5.4741    0.0000   -5.3667 O   0  0  0  0  0  2           0  0  0
    9.1156   -0.0122   -2.9212 O   0  0  0  0  0  2           0  0  0
   10.1185    0.0169   -4.9750 O   0  0  0  0  0  2           0  0  0
    7.4596    0.0338   -7.3513 O   0  0  0  0  0  2           0  0  0
   11.6607   -1.2513   -6.9932 O   0  0  0  0  0  2           0  0  0
    6.3726    0.0000   -4.5331 C   0  0  0  0  0  4           0  0  0
    4.2373    0.0000   -2.8113 C   0  0  0  0  0  4           0  0  0
    9.0369   -0.0026   -4.1375 C   0  0  0  0  0  4           0  0  0
    8.2132    0.0063   -6.2124 C   0  0  0  0  0  4           0  0  0
    9.6827    0.0034   -6.3415 C   0  0  2  0  0  4           0  0  0
   10.2373   -1.2400   -7.0240 C   0  0  0  0  0  4           0  0  0
    7.7968   -0.0013   -4.9425 C   0  0  0  0  0  4           0  0  0
    3.6452    0.0000   -1.4064 C   0  0  0  0  0  4           0  0  0
    2.1190    0.0000   -1.4064 C   0  0  0  0  0  4           0  0  0
    1.5262   -0.0000   -0.0000 C   0  0  0  0  0  4           0  0  0
    0.0000    0.0000   -0.0000 C   0  0  0  0  0  4           0  0  0
   -0.5927    0.0000    1.4064 C   0  0  0  0  0  4           0  0  0
   -2.1190   -0.0000    1.4064 C   0  0  0  0  0  4           0  0  0
   -2.7117    1.2180    0.7032 C   0  0  0  0  0  4           0  0  0
   -4.2380    1.2180    0.7032 C   0  0  0  0  0  4           0  0  0
   -4.8307    2.4360    0.0000 C   0  0  0  0  0  4           0  0  0
   -6.3569    2.4360    0.0000 C   0  0  0  0  0  4           0  0  0
   -6.9497    3.6540   -0.7032 C   0  0  0  0  0  4           0  0  0
   -8.4759    3.6540   -0.7032 C   0  0  0  0  0  4           0  0  0
   -9.0656    4.8687   -1.4045 C   0  0  0  0  0  4           0  0  0
  1  7  1  0     0  0
  1  8  1  0     0  0
  2  7  2  0     0  0
  3  9  2  0     0  0
  4  9  1  0     0  0
  4 11  1  0     0  0
  5 10  1  0     0  0
  6 12  1  0     0  0
  7 13  1  0     0  0
  8 14  1  0     0  0
  9 13  1  0     0  0
 10 11  1  0     0  0
 10 13  2  0     0  0
 11 12  1  0     0  0
 14 15  1  0     0  0
 15 16  1  0     0  0
 16 17  1  0     0  0
 17 18  1  0     0  0
 18 19  1  0     0  0
 19 20  1  0     0  0
 20 21  1  0     0  0
 21 22  1  0     0  0
 22 23  1  0     0  0
 23 24  1  0     0  0
 24 25  1  0     0  0
 25 26  1  0     0  0
M  END
> <standard_type>
IC50

> <# Confs.>
25

> <canonical_smiles>
OC([C@H](CO)O1)=C(C(SCCCCCCCCCCCCCC)=O)C1=O

> <standard_relation>
=

> <predicted_activity_value>
5.552841968657781

> <actual_activity_value>
5.363512103646634

> <Compound>
13

> <publication_ID>
nan

> <standard_units>
nM

> hash
3392954433531072424

$$$$
13_
XXILIB    08252103493D 0   0.00000     0.00000

 26 26  0     1  0            999 V2000
    6.0577   -0.0000   -2.8128 S   0  0  0  0  0  2           0  0  0
    5.4741    0.0000   -5.3667 O   0  0  0  0  0  2           0  0  0
    9.1156   -0.0122   -2.9212 O   0  0  0  0  0  2           0  0  0
   10.1185    0.0169   -4.9750 O   0  0  0  0  0  2           0  0  0
    7.4596    0.0338   -7.3513 O   0  0  0  0  0  2           0  0  0
   11.6607   -1.2513   -6.9932 O   0  0  0  0  0  2           0  0  0
    6.3726    0.0000   -4.5331 C   0  0  0  0  0  4           0  0  0
    4.2373    0.0000   -2.8113 C   0  0  0  0  0  4           0  0  0
    9.0369   -0.0026   -4.1375 C   0  0  0  0  0  4           0  0  0
    8.2132    0.0063   -6.2124 C   0  0  0  0  0  4           0  0  0
    9.6827    0.0034   -6.3415 C   0  0  2  0  0  4           0  0  0
   10.2373   -1.2400   -7.0240 C   0  0  0  0  0  4           0  0  0
    7.7968   -0.0013   -4.9425 C   0  0  0  0  0  4           0  0  0
    3.6452    0.0000   -1.4064 C   0  0  0  0  0  4           0  0  0
    2.1190    0.0000   -1.4064 C   0  0  0  0  0  4           0  0  0
    1.5262   -0.0000   -0.0000 C   0  0  0  0  0  4           0  0  0
   -0.0000    0.0000    0.0000 C   0  0  0  0  0  4           0  0  0
   -0.5927    0.0000    1.4064 C   0  0  0  0  0  4           0  0  0
   -2.1190   -0.0000    1.4064 C   0  0  0  0  0  4           0  0  0
   -2.7117   -0.0000    2.8129 C   0  0  0  0  0  4           0  0  0
   -2.2939   -1.2180    3.6322 C   0  0  0  0  0  4           0  0  0
   -2.8866   -1.2180    5.0386 C   0  0  0  0  0  4           0  0  0
   -2.4688   -2.4360    5.8580 C   0  0  0  0  0  4           0  0  0
   -3.0615   -2.4360    7.2644 C   0  0  0  0  0  4           0  0  0
   -2.6437   -3.6540    8.0837 C   0  0  0  0  0  4           0  0  0
   -3.2352   -3.6530    9.4855 C   0  0  0  0  0  4           0  0  0
  1  7  1  0     0  0
  1  8  1  0     0  0
  2  7  2  0     0  0
  3  9  2  0     0  0
  4  9  1  0     0  0
  4 11  1  0     0  0
  5 10  1  0     0  0
  6 12  1  0     0  0
  7 13  1  0     0  0
  8 14  1  0     0  0
  9 13  1  0     0  0
 10 11  1  0     0  0
 10 13  2  0     0  0
 11 12  1  0     0  0
 14 15  1  0     0  0
 15 16  1  0     0  0
 16 17  1  0     0  0
 17 18  1  0     0  0
 18 19  1  0     0  0
 19 20  1  0     0  0
 20 21  1  0     0  0
 21 22  1  0     0  0
 22 23  1  0     0  0
 23 24  1  0     0  0
 24 25  1  0     0  0
 25 26  1  0     0  0
M  END
> <standard_type>
IC50

> <# Confs.>
25

> <canonical_smiles>
OC([C@H](CO)O1)=C(C(SCCCCCCCCCCCCCC)=O)C1=O

> <standard_relation>
=

> <predicted_activity_value>
5.552841968657781

> <actual_activity_value>
5.363512103646634

> <Compound>
13

> <publication_ID>
nan

> <standard_units>
nM

> hash
3392954433531072424

$$$$
13_
XXILIB    08252103493D 0   0.00000     0.00000

 26 26  0     1  0            999 V2000
    6.0577   -0.0000   -2.8128 S   0  0  0  0  0  2           0  0  0
    5.4741    0.0000   -5.3667 O   0  0  0  0  0  2           0  0  0
    9.1156   -0.0122   -2.9212 O   0  0  0  0  0  2           0  0  0
   10.1185    0.0169   -4.9750 O   0  0  0  0  0  2           0  0  0
    7.4596    0.0338   -7.3513 O   0  0  0  0  0  2           0  0  0
   11.6607   -1.2513   -6.9932 O   0  0  0  0  0  2           0  0  0
    6.3726    0.0000   -4.5331 C   0  0  0  0  0  4           0  0  0
    4.2373    0.0000   -2.8113 C   0  0  0  0  0  4           0  0  0
    9.0369   -0.0026   -4.1375 C   0  0  0  0  0  4           0  0  0
    8.2132    0.0063   -6.2124 C   0  0  0  0  0  4           0  0  0
    9.6827    0.0034   -6.3415 C   0  0  2  0  0  4           0  0  0
   10.2373   -1.2400   -7.0240 C   0  0  0  0  0  4           0  0  0
    7.7968   -0.0013   -4.9425 C   0  0  0  0  0  4           0  0  0
    3.6452    0.0000   -1.4064 C   0  0  0  0  0  4           0  0  0
    2.1190    0.0000   -1.4064 C   0  0  0  0  0  4           0  0  0
    1.5262   -0.0000   -0.0000 C   0  0  0  0  0  4           0  0  0
    0.0000    0.0000    0.0000 C   0  0  0  0  0  4           0  0  0
   -0.5927   -0.0000    1.4064 C   0  0  0  0  0  4           0  0  0
   -2.1190   -0.0000    1.4064 C   0  0  0  0  0  4           0  0  0
   -2.7117    0.0000    2.8129 C   0  0  0  0  0  4           0  0  0
   -4.2380   -0.0000    2.8129 C   0  0  0  0  0  4           0  0  0
   -4.8307    0.0000    4.2193 C   0  0  0  0  0  4           0  0  0
   -6.3569   -0.0000    4.2193 C   0  0  0  0  0  4           0  0  0
   -6.9497    0.0000    5.6258 C   0  0  0  0  0  4           0  0  0
   -6.5318    1.2180    6.4451 C   0  0  0  0  0  4           0  0  0
   -7.1233    1.2169    7.8469 C   0  0  0  0  0  4           0  0  0
  1  7  1  0     0  0
  1  8  1  0     0  0
  2  7  2  0     0  0
  3  9  2  0     0  0
  4  9  1  0     0  0
  4 11  1  0     0  0
  5 10  1  0     0  0
  6 12  1  0     0  0
  7 13  1  0     0  0
  8 14  1  0     0  0
  9 13  1  0     0  0
 10 11  1  0     0  0
 10 13  2  0     0  0
 11 12  1  0     0  0
 14 15  1  0     0  0
 15 16  1  0     0  0
 16 17  1  0     0  0
 17 18  1  0     0  0
 18 19  1  0     0  0
 19 20  1  0     0  0
 20 21  1  0     0  0
 21 22  1  0     0  0
 22 23  1  0     0  0
 23 24  1  0     0  0
 24 25  1  0     0  0
 25 26  1  0     0  0
M  END
> <standard_type>
IC50

> <# Confs.>
25

> <canonical_smiles>
OC([C@H](CO)O1)=C(C(SCCCCCCCCCCCCCC)=O)C1=O

> <standard_relation>
=

> <predicted_activity_value>
5.552841968657781

> <actual_activity_value>
5.363512103646634

> <Compound>
13

> <publication_ID>
nan

> <standard_units>
nM

> hash
3392954433531072424

$$$$
13_
XXILIB    08252103493D 0   0.00000     0.00000

 26 26  0     1  0            999 V2000
    6.0577   -0.0000   -2.8128 S   0  0  0  0  0  2           0  0  0
    5.4741    0.0000   -5.3667 O   0  0  0  0  0  2           0  0  0
    9.1156   -0.0122   -2.9212 O   0  0  0  0  0  2           0  0  0
   10.1185    0.0169   -4.9750 O   0  0  0  0  0  2           0  0  0
    7.4596    0.0338   -7.3513 O   0  0  0  0  0  2           0  0  0
   11.6607   -1.2513   -6.9932 O   0  0  0  0  0  2           0  0  0
    6.3726    0.0000   -4.5331 C   0  0  0  0  0  4           0  0  0
    4.2373    0.0000   -2.8113 C   0  0  0  0  0  4           0  0  0
    9.0369   -0.0026   -4.1375 C   0  0  0  0  0  4           0  0  0
    8.2132    0.0063   -6.2124 C   0  0  0  0  0  4           0  0  0
    9.6827    0.0034   -6.3415 C   0  0  2  0  0  4           0  0  0
   10.2373   -1.2400   -7.0240 C   0  0  0  0  0  4           0  0  0
    7.7968   -0.0013   -4.9425 C   0  0  0  0  0  4           0  0  0
    3.6452    0.0000   -1.4064 C   0  0  0  0  0  4           0  0  0
    2.1190    0.0000   -1.4064 C   0  0  0  0  0  4           0  0  0
    1.5262   -0.0000   -0.0000 C   0  0  0  0  0  4           0  0  0
    0.0000    0.0000    0.0000 C   0  0  0  0  0  4           0  0  0
   -0.5927   -0.0000    1.4064 C   0  0  0  0  0  4           0  0  0
   -2.1190   -0.0000    1.4064 C   0  0  0  0  0  4           0  0  0
   -2.7117   -0.0000    2.8129 C   0  0  0  0  0  4           0  0  0
   -4.2380   -0.0000    2.8129 C   0  0  0  0  0  4           0  0  0
   -4.8307    1.2180    2.1097 C   0  0  0  0  0  4           0  0  0
   -6.3569    1.2180    2.1097 C   0  0  0  0  0  4           0  0  0
   -6.9497    2.4360    1.4064 C   0  0  0  0  0  4           0  0  0
   -8.4759    2.4360    1.4064 C   0  0  0  0  0  4           0  0  0
   -9.0656    3.6507    0.7052 C   0  0  0  0  0  4           0  0  0
  1  7  1  0     0  0
  1  8  1  0     0  0
  2  7  2  0     0  0
  3  9  2  0     0  0
  4  9  1  0     0  0
  4 11  1  0     0  0
  5 10  1  0     0  0
  6 12  1  0     0  0
  7 13  1  0     0  0
  8 14  1  0     0  0
  9 13  1  0     0  0
 10 11  1  0     0  0
 10 13  2  0     0  0
 11 12  1  0     0  0
 14 15  1  0     0  0
 15 16  1  0     0  0
 16 17  1  0     0  0
 17 18  1  0     0  0
 18 19  1  0     0  0
 19 20  1  0     0  0
 20 21  1  0     0  0
 21 22  1  0     0  0
 22 23  1  0     0  0
 23 24  1  0     0  0
 24 25  1  0     0  0
 25 26  1  0     0  0
M  END
> <standard_type>
IC50

> <# Confs.>
25

> <canonical_smiles>
OC([C@H](CO)O1)=C(C(SCCCCCCCCCCCCCC)=O)C1=O

> <standard_relation>
=

> <predicted_activity_value>
5.552841968657781

> <actual_activity_value>
5.363512103646634

> <Compound>
13

> <publication_ID>
nan

> <standard_units>
nM

> hash
3392954433531072424

$$$$
13_
XXILIB    08252103493D 0   0.00000     0.00000

 26 26  0     1  0            999 V2000
    6.0577   -0.0000   -2.8128 S   0  0  0  0  0  2           0  0  0
    5.4741    0.0000   -5.3667 O   0  0  0  0  0  2           0  0  0
    9.1156   -0.0122   -2.9212 O   0  0  0  0  0  2           0  0  0
   10.1185    0.0169   -4.9750 O   0  0  0  0  0  2           0  0  0
    7.4596    0.0338   -7.3513 O   0  0  0  0  0  2           0  0  0
   11.6607   -1.2513   -6.9932 O   0  0  0  0  0  2           0  0  0
    6.3726    0.0000   -4.5331 C   0  0  0  0  0  4           0  0  0
    4.2373    0.0000   -2.8113 C   0  0  0  0  0  4           0  0  0
    9.0369   -0.0026   -4.1375 C   0  0  0  0  0  4           0  0  0
    8.2132    0.0063   -6.2124 C   0  0  0  0  0  4           0  0  0
    9.6827    0.0034   -6.3415 C   0  0  2  0  0  4           0  0  0
   10.2373   -1.2400   -7.0240 C   0  0  0  0  0  4           0  0  0
    7.7968   -0.0013   -4.9425 C   0  0  0  0  0  4           0  0  0
    3.6452    0.0000   -1.4064 C   0  0  0  0  0  4           0  0  0
    2.1190    0.0000   -1.4064 C   0  0  0  0  0  4           0  0  0
    1.5262   -0.0000   -0.0000 C   0  0  0  0  0  4           0  0  0
    0.0000    0.0000    0.0000 C   0  0  0  0  0  4           0  0  0
   -0.5927   -0.0000    1.4064 C   0  0  0  0  0  4           0  0  0
   -2.1190   -0.0000    1.4064 C   0  0  0  0  0  4           0  0  0
   -2.7117    0.0000    2.8129 C   0  0  0  0  0  4           0  0  0
   -4.2380   -0.0000    2.8129 C   0  0  0  0  0  4           0  0  0
   -4.8307    0.0000    4.2193 C   0  0  0  0  0  4           0  0  0
   -4.4129   -1.2180    5.0386 C   0  0  0  0  0  4           0  0  0
   -5.0056   -1.2180    6.4451 C   0  0  0  0  0  4           0  0  0
   -4.5878   -2.4360    7.2644 C   0  0  0  0  0  4           0  0  0
   -5.1792   -2.4349    8.6662 C   0  0  0  0  0  4           0  0  0
  1  7  1  0     0  0
  1  8  1  0     0  0
  2  7  2  0     0  0
  3  9  2  0     0  0
  4  9  1  0     0  0
  4 11  1  0     0  0
  5 10  1  0     0  0
  6 12  1  0     0  0
  7 13  1  0     0  0
  8 14  1  0     0  0
  9 13  1  0     0  0
 10 11  1  0     0  0
 10 13  2  0     0  0
 11 12  1  0     0  0
 14 15  1  0     0  0
 15 16  1  0     0  0
 16 17  1  0     0  0
 17 18  1  0     0  0
 18 19  1  0     0  0
 19 20  1  0     0  0
 20 21  1  0     0  0
 21 22  1  0     0  0
 22 23  1  0     0  0
 23 24  1  0     0  0
 24 25  1  0     0  0
 25 26  1  0     0  0
M  END
> <standard_type>
IC50

> <# Confs.>
25

> <canonical_smiles>
OC([C@H](CO)O1)=C(C(SCCCCCCCCCCCCCC)=O)C1=O

> <standard_relation>
=

> <predicted_activity_value>
5.552841968657781

> <actual_activity_value>
5.363512103646634

> <Compound>
13

> <publication_ID>
nan

> <standard_units>
nM

> hash
3392954433531072424

$$$$
13_
XXILIB    08252103493D 0   0.00000     0.00000

 26 26  0     1  0            999 V2000
    6.0577   -0.0000   -2.8128 S   0  0  0  0  0  2           0  0  0
    5.4741    0.0000   -5.3667 O   0  0  0  0  0  2           0  0  0
    9.1156   -0.0122   -2.9212 O   0  0  0  0  0  2           0  0  0
   10.1185    0.0169   -4.9750 O   0  0  0  0  0  2           0  0  0
    7.4596    0.0338   -7.3513 O   0  0  0  0  0  2           0  0  0
   11.6607   -1.2513   -6.9932 O   0  0  0  0  0  2           0  0  0
    6.3726    0.0000   -4.5331 C   0  0  0  0  0  4           0  0  0
    4.2373    0.0000   -2.8113 C   0  0  0  0  0  4           0  0  0
    9.0369   -0.0026   -4.1375 C   0  0  0  0  0  4           0  0  0
    8.2132    0.0063   -6.2124 C   0  0  0  0  0  4           0  0  0
    9.6827    0.0034   -6.3415 C   0  0  2  0  0  4           0  0  0
   10.2373   -1.2400   -7.0240 C   0  0  0  0  0  4           0  0  0
    7.7968   -0.0013   -4.9425 C   0  0  0  0  0  4           0  0  0
    3.6452    0.0000   -1.4064 C   0  0  0  0  0  4           0  0  0
    2.1190    0.0000   -1.4064 C   0  0  0  0  0  4           0  0  0
    1.5262   -0.0000   -0.0000 C   0  0  0  0  0  4           0  0  0
    0.0000    0.0000    0.0000 C   0  0  0  0  0  4           0  0  0
   -0.5927   -0.0000    1.4064 C   0  0  0  0  0  4           0  0  0
   -2.1190   -0.0000    1.4064 C   0  0  0  0  0  4           0  0  0
   -2.7117    0.0000    2.8129 C   0  0  0  0  0  4           0  0  0
   -4.2380   -0.0000    2.8129 C   0  0  0  0  0  4           0  0  0
   -4.8307    0.0000    4.2193 C   0  0  0  0  0  4           0  0  0
   -6.3569   -0.0000    4.2193 C   0  0  0  0  0  4           0  0  0
   -6.9497    1.2180    3.5161 C   0  0  0  0  0  4           0  0  0
   -8.4759    1.2180    3.5161 C   0  0  0  0  0  4           0  0  0
   -9.0656    2.4327    2.8148 C   0  0  0  0  0  4           0  0  0
  1  7  1  0     0  0
  1  8  1  0     0  0
  2  7  2  0     0  0
  3  9  2  0     0  0
  4  9  1  0     0  0
  4 11  1  0     0  0
  5 10  1  0     0  0
  6 12  1  0     0  0
  7 13  1  0     0  0
  8 14  1  0     0  0
  9 13  1  0     0  0
 10 11  1  0     0  0
 10 13  2  0     0  0
 11 12  1  0     0  0
 14 15  1  0     0  0
 15 16  1  0     0  0
 16 17  1  0     0  0
 17 18  1  0     0  0
 18 19  1  0     0  0
 19 20  1  0     0  0
 20 21  1  0     0  0
 21 22  1  0     0  0
 22 23  1  0     0  0
 23 24  1  0     0  0
 24 25  1  0     0  0
 25 26  1  0     0  0
M  END
> <standard_type>
IC50

> <# Confs.>
25

> <canonical_smiles>
OC([C@H](CO)O1)=C(C(SCCCCCCCCCCCCCC)=O)C1=O

> <standard_relation>
=

> <predicted_activity_value>
5.552841968657781

> <actual_activity_value>
5.363512103646634

> <Compound>
13

> <publication_ID>
nan

> <standard_units>
nM

> hash
3392954433531072424

$$$$
13_
XXILIB    08252103493D 0   0.00000     0.00000

 26 26  0     1  0            999 V2000
    6.0577   -0.0000   -2.8128 S   0  0  0  0  0  2           0  0  0
    5.4741    0.0000   -5.3667 O   0  0  0  0  0  2           0  0  0
    9.1156   -0.0122   -2.9212 O   0  0  0  0  0  2           0  0  0
   10.1185    0.0169   -4.9750 O   0  0  0  0  0  2           0  0  0
    7.4596    0.0338   -7.3513 O   0  0  0  0  0  2           0  0  0
   11.6607   -1.2513   -6.9932 O   0  0  0  0  0  2           0  0  0
    6.3726    0.0000   -4.5331 C   0  0  0  0  0  4           0  0  0
    4.2373    0.0000   -2.8113 C   0  0  0  0  0  4           0  0  0
    9.0369   -0.0026   -4.1375 C   0  0  0  0  0  4           0  0  0
    8.2132    0.0063   -6.2124 C   0  0  0  0  0  4           0  0  0
    9.6827    0.0034   -6.3415 C   0  0  2  0  0  4           0  0  0
   10.2373   -1.2400   -7.0240 C   0  0  0  0  0  4           0  0  0
    7.7968   -0.0013   -4.9425 C   0  0  0  0  0  4           0  0  0
    3.6452    0.0000   -1.4064 C   0  0  0  0  0  4           0  0  0
    2.1190    0.0000   -1.4064 C   0  0  0  0  0  4           0  0  0
    1.5262   -0.0000   -0.0000 C   0  0  0  0  0  4           0  0  0
    0.0000    0.0000    0.0000 C   0  0  0  0  0  4           0  0  0
   -0.5927   -0.0000    1.4064 C   0  0  0  0  0  4           0  0  0
   -2.1190   -0.0000    1.4064 C   0  0  0  0  0  4           0  0  0
   -2.7117    0.0000    2.8129 C   0  0  0  0  0  4           0  0  0
   -4.2380   -0.0000    2.8129 C   0  0  0  0  0  4           0  0  0
   -4.8307    0.0000    4.2193 C   0  0  0  0  0  4           0  0  0
   -6.3569   -0.0000    4.2193 C   0  0  0  0  0  4           0  0  0
   -6.9497    0.0000    5.6258 C   0  0  0  0  0  4           0  0  0
   -6.5318   -1.2180    6.4451 C   0  0  0  0  0  4           0  0  0
   -7.1233   -1.2169    7.8469 C   0  0  0  0  0  4           0  0  0
  1  7  1  0     0  0
  1  8  1  0     0  0
  2  7  2  0     0  0
  3  9  2  0     0  0
  4  9  1  0     0  0
  4 11  1  0     0  0
  5 10  1  0     0  0
  6 12  1  0     0  0
  7 13  1  0     0  0
  8 14  1  0     0  0
  9 13  1  0     0  0
 10 11  1  0     0  0
 10 13  2  0     0  0
 11 12  1  0     0  0
 14 15  1  0     0  0
 15 16  1  0     0  0
 16 17  1  0     0  0
 17 18  1  0     0  0
 18 19  1  0     0  0
 19 20  1  0     0  0
 20 21  1  0     0  0
 21 22  1  0     0  0
 22 23  1  0     0  0
 23 24  1  0     0  0
 24 25  1  0     0  0
 25 26  1  0     0  0
M  END
> <standard_type>
IC50

> <# Confs.>
25

> <canonical_smiles>
OC([C@H](CO)O1)=C(C(SCCCCCCCCCCCCCC)=O)C1=O

> <standard_relation>
=

> <predicted_activity_value>
5.552841968657781

> <actual_activity_value>
5.363512103646634

> <Compound>
13

> <publication_ID>
nan

> <standard_units>
nM

> hash
3392954433531072424

$$$$
13_
XXILIB    08252103493D 0   0.00000     0.00000

 26 26  0     1  0            999 V2000
    3.7397    2.5558    3.1525 S   0  0  0  0  0  2           0  0  0
    5.2704    4.6582    2.8368 O   0  0  0  0  0  2           0  0  0
    2.9706    2.8415    6.1003 O   0  0  0  0  0  2           0  0  0
    3.7753    4.6449    7.2513 O   0  0  0  0  0  2           0  0  0
    5.7654    6.4709    4.9227 O   0  0  0  0  0  2           0  0  0
    5.4485    5.7519    9.2599 O   0  0  0  0  0  2           0  0  0
    4.5770    4.0187    3.6192 C   0  0  0  0  0  4           0  0  0
    4.2373    2.4347    1.4057 C   0  0  0  0  0  4           0  0  0
    3.6373    3.8612    6.1386 C   0  0  0  0  0  4           0  0  0
    4.9695    5.5510    5.5442 C   0  0  0  0  0  4           0  0  0
    4.6389    5.7544    6.9674 C   0  0  2  0  0  4           0  0  0
    5.8457    5.6901    7.8941 C   0  0  0  0  0  4           0  0  0
    4.4079    4.4549    5.0253 C   0  0  0  0  0  4           0  0  0
    3.6452    1.2180    0.7032 C   0  0  0  0  0  4           0  0  0
    2.1190    1.2180    0.7032 C   0  0  0  0  0  4           0  0  0
    1.5262   -0.0000   -0.0000 C   0  0  0  0  0  4           0  0  0
    0.0000    0.0000    0.0000 C   0  0  0  0  0  4           0  0  0
   -0.5927   -0.0000    1.4064 C   0  0  0  0  0  4           0  0  0
   -2.1190   -0.0000    1.4064 C   0  0  0  0  0  4           0  0  0
   -2.7117    0.0000    2.8129 C   0  0  0  0  0  4           0  0  0
   -4.2380   -0.0000    2.8129 C   0  0  0  0  0  4           0  0  0
   -4.8307    0.0000    4.2193 C   0  0  0  0  0  4           0  0  0
   -6.3569   -0.0000    4.2193 C   0  0  0  0  0  4           0  0  0
   -6.9497    0.0000    5.6258 C   0  0  0  0  0  4           0  0  0
   -8.4759   -0.0000    5.6258 C   0  0  0  0  0  4           0  0  0
   -9.0656    0.0000    7.0283 C   0  0  0  0  0  4           0  0  0
  1  7  1  0     0  0
  1  8  1  0     0  0
  2  7  2  0     0  0
  3  9  2  0     0  0
  4  9  1  0     0  0
  4 11  1  0     0  0
  5 10  1  0     0  0
  6 12  1  0     0  0
  7 13  1  0     0  0
  8 14  1  0     0  0
  9 13  1  0     0  0
 10 11  1  0     0  0
 10 13  2  0     0  0
 11 12  1  0     0  0
 14 15  1  0     0  0
 15 16  1  0     0  0
 16 17  1  0     0  0
 17 18  1  0     0  0
 18 19  1  0     0  0
 19 20  1  0     0  0
 20 21  1  0     0  0
 21 22  1  0     0  0
 22 23  1  0     0  0
 23 24  1  0     0  0
 24 25  1  0     0  0
 25 26  1  0     0  0
M  END
> <standard_type>
IC50

> <# Confs.>
25

> <canonical_smiles>
OC([C@H](CO)O1)=C(C(SCCCCCCCCCCCCCC)=O)C1=O

> <standard_relation>
=

> <predicted_activity_value>
5.552841968657781

> <actual_activity_value>
5.363512103646634

> <Compound>
13

> <publication_ID>
nan

> <standard_units>
nM

> hash
3392954433531072424

$$$$
13_
XXILIB    08252103493D 0   0.00000     0.00000

 26 26  0     1  0            999 V2000
    3.7397   -4.0081    0.6372 S   0  0  0  0  0  2           0  0  0
    5.2704   -4.7858    2.6157 O   0  0  0  0  0  2           0  0  0
    2.9706   -6.7038   -0.5893 O   0  0  0  0  0  2           0  0  0
    3.7753   -8.6023    0.3970 O   0  0  0  0  0  2           0  0  0
    5.7654   -7.4986    3.1426 O   0  0  0  0  0  2           0  0  0
    5.4485  -10.8953    0.3514 O   0  0  0  0  0  2           0  0  0
    4.5770   -5.1437    1.6707 C   0  0  0  0  0  4           0  0  0
    4.2373   -2.4347    1.4057 C   0  0  0  0  0  4           0  0  0
    3.6373   -7.2467    0.2746 C   0  0  0  0  0  4           0  0  0
    4.9695   -7.5769    2.0352 C   0  0  0  0  0  4           0  0  0
    4.6389   -8.9111    1.4998 C   0  0  2  0  0  4           0  0  0
    5.8457   -9.6815    0.9807 C   0  0  0  0  0  4           0  0  0
    4.4079   -6.5795    1.3454 C   0  0  0  0  0  4           0  0  0
    3.6452   -1.2180    0.7032 C   0  0  0  0  0  4           0  0  0
    2.1190   -1.2180    0.7032 C   0  0  0  0  0  4           0  0  0
    1.5262    0.0000   -0.0000 C   0  0  0  0  0  4           0  0  0
    0.0000    0.0000    0.0000 C   0  0  0  0  0  4           0  0  0
   -0.5927   -0.0000    1.4064 C   0  0  0  0  0  4           0  0  0
   -2.1190   -0.0000    1.4064 C   0  0  0  0  0  4           0  0  0
   -2.7117    0.0000    2.8129 C   0  0  0  0  0  4           0  0  0
   -4.2380   -0.0000    2.8129 C   0  0  0  0  0  4           0  0  0
   -4.8307    0.0000    4.2193 C   0  0  0  0  0  4           0  0  0
   -6.3569   -0.0000    4.2193 C   0  0  0  0  0  4           0  0  0
   -6.9497    0.0000    5.6258 C   0  0  0  0  0  4           0  0  0
   -8.4759   -0.0000    5.6258 C   0  0  0  0  0  4           0  0  0
   -9.0656    0.0000    7.0283 C   0  0  0  0  0  4           0  0  0
  1  7  1  0     0  0
  1  8  1  0     0  0
  2  7  2  0     0  0
  3  9  2  0     0  0
  4  9  1  0     0  0
  4 11  1  0     0  0
  5 10  1  0     0  0
  6 12  1  0     0  0
  7 13  1  0     0  0
  8 14  1  0     0  0
  9 13  1  0     0  0
 10 11  1  0     0  0
 10 13  2  0     0  0
 11 12  1  0     0  0
 14 15  1  0     0  0
 15 16  1  0     0  0
 16 17  1  0     0  0
 17 18  1  0     0  0
 18 19  1  0     0  0
 19 20  1  0     0  0
 20 21  1  0     0  0
 21 22  1  0     0  0
 22 23  1  0     0  0
 23 24  1  0     0  0
 24 25  1  0     0  0
 25 26  1  0     0  0
M  END
> <standard_type>
IC50

> <# Confs.>
25

> <canonical_smiles>
OC([C@H](CO)O1)=C(C(SCCCCCCCCCCCCCC)=O)C1=O

> <standard_relation>
=

> <predicted_activity_value>
5.552841968657781

> <actual_activity_value>
5.363512103646634

> <Compound>
13

> <publication_ID>
nan

> <standard_units>
nM

> hash
3392954433531072424

$$$$
13_
XXILIB    08252103493D 0   0.00000     0.00000

 26 26  0     1  0            999 V2000
    6.0577   -2.4360    1.4064 S   0  0  0  0  0  2           0  0  0
    5.6104   -4.3676    3.1185 O   0  0  0  0  0  2           0  0  0
    8.7278   -3.3331    0.2113 O   0  0  0  0  0  2           0  0  0
    9.6351   -5.2937    0.9581 O   0  0  0  0  0  2           0  0  0
    7.3689   -6.5358    3.4155 O   0  0  0  0  0  2           0  0  0
   11.6490   -6.7060    2.3756 O   0  0  0  0  0  2           0  0  0
    6.3726   -3.9258    2.2666 C   0  0  0  0  0  4           0  0  0
    4.2373   -2.4347    1.4057 C   0  0  0  0  0  4           0  0  0
    8.6834   -4.3112    0.9374 C   0  0  0  0  0  4           0  0  0
    8.0113   -5.7918    2.4669 C   0  0  0  0  0  4           0  0  0
    9.2949   -6.2874    1.9349 C   0  0  2  0  0  4           0  0  0
   10.4053   -6.3576    2.9748 C   0  0  0  0  0  4           0  0  0
    7.6226   -4.6392    1.9134 C   0  0  0  0  0  4           0  0  0
    3.6452   -1.2180    0.7032 C   0  0  0  0  0  4           0  0  0
    2.1190   -1.2180    0.7032 C   0  0  0  0  0  4           0  0  0
    1.5262    0.0000    0.0000 C   0  0  0  0  0  4           0  0  0
    0.0000    0.0000    0.0000 C   0  0  0  0  0  4           0  0  0
   -0.5927   -0.0000    1.4064 C   0  0  0  0  0  4           0  0  0
   -2.1190   -0.0000    1.4064 C   0  0  0  0  0  4           0  0  0
   -2.7117    0.0000    2.8129 C   0  0  0  0  0  4           0  0  0
   -4.2380   -0.0000    2.8129 C   0  0  0  0  0  4           0  0  0
   -4.8307    0.0000    4.2193 C   0  0  0  0  0  4           0  0  0
   -6.3569   -0.0000    4.2193 C   0  0  0  0  0  4           0  0  0
   -6.9497    0.0000    5.6258 C   0  0  0  0  0  4           0  0  0
   -8.4759   -0.0000    5.6258 C   0  0  0  0  0  4           0  0  0
   -9.0656    0.0000    7.0283 C   0  0  0  0  0  4           0  0  0
  1  7  1  0     0  0
  1  8  1  0     0  0
  2  7  2  0     0  0
  3  9  2  0     0  0
  4  9  1  0     0  0
  4 11  1  0     0  0
  5 10  1  0     0  0
  6 12  1  0     0  0
  7 13  1  0     0  0
  8 14  1  0     0  0
  9 13  1  0     0  0
 10 11  1  0     0  0
 10 13  2  0     0  0
 11 12  1  0     0  0
 14 15  1  0     0  0
 15 16  1  0     0  0
 16 17  1  0     0  0
 17 18  1  0     0  0
 18 19  1  0     0  0
 19 20  1  0     0  0
 20 21  1  0     0  0
 21 22  1  0     0  0
 22 23  1  0     0  0
 23 24  1  0     0  0
 24 25  1  0     0  0
 25 26  1  0     0  0
M  END
> <standard_type>
IC50

> <# Confs.>
25

> <canonical_smiles>
OC([C@H](CO)O1)=C(C(SCCCCCCCCCCCCCC)=O)C1=O

> <standard_relation>
=

> <predicted_activity_value>
5.552841968657781

> <actual_activity_value>
5.363512103646634

> <Compound>
13

> <publication_ID>
nan

> <standard_units>
nM

> hash
3392954433531072424

$$$$
3_
XXILIB    08252103493D 0   0.00000     0.00000

 39 41  0     1  0            999 V2000
  -11.2090   -2.0915    7.5142 F   0  0  0  0  0  1           0  0  0
  -12.9459   -3.1718    6.7890 F   0  0  0  0  0  1           0  0  0
  -13.0705   -2.0307    8.6354 F   0  0  0  0  0  1           0  0  0
  -10.4329    0.2057    8.5706 O   0  0  0  0  0  2           0  0  0
  -10.0418    0.0822    3.8847 O   0  0  0  0  0  2           0  0  0
   -7.0670   -0.0000    3.0959 O   0  0  0  0  0  2           0  0  0
   -7.4063    0.0815    7.5538 N   0  0  0  0  0  3           0  0  0
   -6.4478    0.0376    6.5947 N   0  0  0  0  0  3           0  0  0
  -10.6940    0.1509    6.1915 N   0  0  1  0  0  3           0  0  0
   -8.6444    0.1112    7.0263 C   0  0  0  0  0  4           0  0  0
   -7.1309    0.0375    5.4281 C   0  0  0  0  0  4           0  0  0
  -12.1194    0.1844    6.0718 C   0  0  0  0  0  4           0  0  0
   -8.5073    0.0793    5.6746 C   0  0  0  0  0  4           0  0  0
  -12.9954   -0.7932    6.6097 C   0  0  0  0  0  4           0  0  0
  -12.6921    1.2713    5.3695 C   0  0  0  0  0  4           0  0  0
  -14.3874   -0.6365    6.4260 C   0  0  0  0  0  4           0  0  0
  -14.0711    1.4029    5.2035 C   0  0  0  0  0  4           0  0  0
  -14.9207    0.4475    5.7333 C   0  0  0  0  0  4           0  0  0
  -12.5612   -2.0025    7.3729 C   0  0  1  0  0  4           0  0  0
  -10.0098    0.1620    7.4270 C   0  0  0  0  0  4           0  0  0
   -9.8160    0.1028    5.0833 C   0  0  0  0  0  4           0  0  0
   -6.4443   -0.0000    4.1549 C   0  0  0  0  0  4           0  0  0
   -4.9348   -0.0000    4.1786 C   0  0  0  0  0  4           0  0  0
   -4.3078   -0.0000    2.7854 C   0  0  0  0  0  4           0  0  0
   -2.7806   -0.0000    2.7854 C   0  0  0  0  0  4           0  0  0
   -2.1539   -0.0000    1.3927 C   0  0  0  0  0  4           0  0  0
   -0.6267    0.0000    1.3927 C   0  0  0  0  0  4           0  0  0
    0.0000   -0.0000    0.0000 C   0  0  0  0  0  4           0  0  0
    1.5278   -0.0000   -0.0000 C   0  0  0  0  0  4           0  0  0
    2.1545    0.0000   -1.3927 C   0  0  0  0  0  4           0  0  0
    3.6817    0.0000   -1.3927 C   0  0  0  0  0  4           0  0  0
    4.3084    0.0000   -2.7854 C   0  0  0  0  0  4           0  0  0
    5.8356    0.0000   -2.7854 C   0  0  0  0  0  4           0  0  0
    6.4623    0.0000   -4.1781 C   0  0  0  0  0  4           0  0  0
    7.9895    0.0000   -4.1781 C   0  0  0  0  0  4           0  0  0
    8.6162    0.0000   -5.5707 C   0  0  0  0  0  4           0  0  0
   10.1434    0.0000   -5.5707 C   0  0  0  0  0  4           0  0  0
   10.7701    0.0000   -6.9634 C   0  0  0  0  0  4           0  0  0
   12.2907    0.0000   -6.9245 C   0  0  0  0  0  4           0  0  0
  1 19  1  0     0  0
  2 19  1  0     0  0
  3 19  1  0     0  0
  4 20  2  0     0  0
  5 21  2  0     0  0
  6 22  2  0     0  0
  7  8  1  0     0  0
  7 10  1  0     0  0
  8 11  2  0     0  0
  9 12  1  0     0  0
  9 20  1  0     0  0
  9 21  1  0     0  0
 10 13  2  0     0  0
 10 20  1  0     0  0
 11 13  1  0     0  0
 11 22  1  0     0  0
 12 14  1  0     0  0
 12 15  2  0     0  0
 13 21  1  0     0  0
 14 16  2  0     0  0
 14 19  1  0     0  0
 15 17  1  0     0  0
 16 18  1  0     0  0
 17 18  2  0     0  0
 22 23  1  0     0  0
 23 24  1  0     0  0
 24 25  1  0     0  0
 25 26  1  0     0  0
 26 27  1  0     0  0
 27 28  1  0     0  0
 28 29  1  0     0  0
 29 30  1  0     0  0
 30 31  1  0     0  0
 31 32  1  0     0  0
 32 33  1  0     0  0
 33 34  1  0     0  0
 34 35  1  0     0  0
 35 36  1  0     0  0
 36 37  1  0     0  0
 37 38  1  0     0  0
 38 39  1  0     0  0
M  END
> <standard_type>
IC50

> <# Confs.>
25

> <canonical_smiles>
O=C1C2=C(C(C(CCCCCCCCCCCCCCCCC)=O)=NN2)C(N1C3=CC=CC=C3C(F)(F)F)=O

> <standard_relation>
=

> <predicted_activity_value>
6.3979400086720375

> <actual_activity_value>
6.494850021680094

> <Compound>
3

> <publication_ID>
nan

> <standard_units>
nM

> hash
9721077515220394765

$$$$
3_
XXILIB    08252103493D 0   0.00000     0.00000

 39 41  0     1  0            999 V2000
  -11.0950    2.4629    7.4313 F   0  0  0  0  0  1           0  0  0
  -12.9581    2.5652    8.5396 F   0  0  0  0  0  1           0  0  0
  -12.7704    3.5965    6.6349 F   0  0  0  0  0  1           0  0  0
  -10.4329    0.2057    8.5706 O   0  0  0  0  0  2           0  0  0
  -10.0418    0.0822    3.8847 O   0  0  0  0  0  2           0  0  0
   -7.0670   -0.0000    3.0959 O   0  0  0  0  0  2           0  0  0
   -7.4063    0.0815    7.5538 N   0  0  0  0  0  3           0  0  0
   -6.4478    0.0376    6.5947 N   0  0  0  0  0  3           0  0  0
  -10.6940    0.1509    6.1915 N   0  0  1  0  0  3           0  0  0
   -8.6444    0.1112    7.0263 C   0  0  0  0  0  4           0  0  0
   -7.1309    0.0375    5.4281 C   0  0  0  0  0  4           0  0  0
  -12.1194    0.1844    6.0718 C   0  0  0  0  0  4           0  0  0
   -8.5073    0.0793    5.6746 C   0  0  0  0  0  4           0  0  0
  -12.9440    1.2290    6.5631 C   0  0  0  0  0  4           0  0  0
  -12.7469   -0.9004    5.4147 C   0  0  0  0  0  4           0  0  0
  -14.3410    1.1423    6.3716 C   0  0  0  0  0  4           0  0  0
  -14.1295   -0.9608    5.2377 C   0  0  0  0  0  4           0  0  0
  -14.9283    0.0630    5.7165 C   0  0  0  0  0  4           0  0  0
  -12.4491    2.4423    7.2819 C   0  0  1  0  0  4           0  0  0
  -10.0098    0.1620    7.4270 C   0  0  0  0  0  4           0  0  0
   -9.8160    0.1028    5.0833 C   0  0  0  0  0  4           0  0  0
   -6.4443   -0.0000    4.1549 C   0  0  0  0  0  4           0  0  0
   -4.9348   -0.0000    4.1786 C   0  0  0  0  0  4           0  0  0
   -4.3078   -0.0000    2.7854 C   0  0  0  0  0  4           0  0  0
   -2.7806   -0.0000    2.7854 C   0  0  0  0  0  4           0  0  0
   -2.1539   -0.0000    1.3927 C   0  0  0  0  0  4           0  0  0
   -0.6267    0.0000    1.3927 C   0  0  0  0  0  4           0  0  0
    0.0000   -0.0000    0.0000 C   0  0  0  0  0  4           0  0  0
    1.5278   -0.0000   -0.0000 C   0  0  0  0  0  4           0  0  0
    2.1545    0.0000   -1.3927 C   0  0  0  0  0  4           0  0  0
    3.6817    0.0000   -1.3927 C   0  0  0  0  0  4           0  0  0
    4.3084    0.0000   -2.7854 C   0  0  0  0  0  4           0  0  0
    5.8356    0.0000   -2.7854 C   0  0  0  0  0  4           0  0  0
    6.4623    0.0000   -4.1781 C   0  0  0  0  0  4           0  0  0
    7.9895    0.0000   -4.1781 C   0  0  0  0  0  4           0  0  0
    8.6162    0.0000   -5.5707 C   0  0  0  0  0  4           0  0  0
   10.1434    0.0000   -5.5707 C   0  0  0  0  0  4           0  0  0
   10.7701    0.0000   -6.9634 C   0  0  0  0  0  4           0  0  0
   12.2907    0.0000   -6.9245 C   0  0  0  0  0  4           0  0  0
  1 19  1  0     0  0
  2 19  1  0     0  0
  3 19  1  0     0  0
  4 20  2  0     0  0
  5 21  2  0     0  0
  6 22  2  0     0  0
  7  8  1  0     0  0
  7 10  1  0     0  0
  8 11  2  0     0  0
  9 12  1  0     0  0
  9 20  1  0     0  0
  9 21  1  0     0  0
 10 13  2  0     0  0
 10 20  1  0     0  0
 11 13  1  0     0  0
 11 22  1  0     0  0
 12 14  1  0     0  0
 12 15  2  0     0  0
 13 21  1  0     0  0
 14 16  2  0     0  0
 14 19  1  0     0  0
 15 17  1  0     0  0
 16 18  1  0     0  0
 17 18  2  0     0  0
 22 23  1  0     0  0
 23 24  1  0     0  0
 24 25  1  0     0  0
 25 26  1  0     0  0
 26 27  1  0     0  0
 27 28  1  0     0  0
 28 29  1  0     0  0
 29 30  1  0     0  0
 30 31  1  0     0  0
 31 32  1  0     0  0
 32 33  1  0     0  0
 33 34  1  0     0  0
 34 35  1  0     0  0
 35 36  1  0     0  0
 36 37  1  0     0  0
 37 38  1  0     0  0
 38 39  1  0     0  0
M  END
> <standard_type>
IC50

> <# Confs.>
25

> <canonical_smiles>
O=C1C2=C(C(C(CCCCCCCCCCCCCCCCC)=O)=NN2)C(N1C3=CC=CC=C3C(F)(F)F)=O

> <standard_relation>
=

> <predicted_activity_value>
6.3979400086720375

> <actual_activity_value>
6.494850021680094

> <Compound>
3

> <publication_ID>
nan

> <standard_units>
nM

> hash
9721077515220394765

$$$$
3_
XXILIB    08252103493D 0   0.00000     0.00000

 39 41  0     1  0            999 V2000
  -11.2090   -3.0495   -1.3903 F   0  0  0  0  0  1           0  0  0
  -12.9459   -1.8814   -1.9633 F   0  0  0  0  0  1           0  0  0
  -13.0705   -4.0509   -1.8983 F   0  0  0  0  0  1           0  0  0
  -10.4329   -5.1130    0.0709 O   0  0  0  0  0  2           0  0  0
  -10.0418   -0.9932    2.3069 O   0  0  0  0  0  2           0  0  0
   -7.0670   -0.2689    2.6301 O   0  0  0  0  0  2           0  0  0
   -7.4063   -4.1704    0.4718 N   0  0  0  0  0  3           0  0  0
   -6.4478   -3.3178    0.9132 N   0  0  0  0  0  3           0  0  0
  -10.6940   -3.0252    1.2130 N   0  0  1  0  0  3           0  0  0
   -8.6444   -3.7283    0.7612 C   0  0  0  0  0  4           0  0  0
   -7.1309   -2.3074    1.4965 C   0  0  0  0  0  4           0  0  0
  -12.1194   -2.9384    1.3019 C   0  0  0  0  0  4           0  0  0
   -8.5073   -2.5418    1.4094 C   0  0  0  0  0  4           0  0  0
  -12.9954   -2.9154    0.1863 C   0  0  0  0  0  4           0  0  0
  -12.6921   -2.8736    2.5943 C   0  0  0  0  0  4           0  0  0
  -14.3874   -2.8346    0.4139 C   0  0  0  0  0  4           0  0  0
  -14.0711   -2.7956    2.7913 C   0  0  0  0  0  4           0  0  0
  -14.9207   -2.7767    1.6989 C   0  0  0  0  0  4           0  0  0
  -12.5612   -2.9717   -1.2427 C   0  0  1  0  0  4           0  0  0
  -10.0098   -4.1007    0.6049 C   0  0  0  0  0  4           0  0  0
   -9.8160   -2.0415    1.7254 C   0  0  0  0  0  4           0  0  0
   -6.4443   -1.1861    2.1006 C   0  0  0  0  0  4           0  0  0
   -4.9348   -1.2066    2.0888 C   0  0  0  0  0  4           0  0  0
   -4.3078    0.0000    2.7854 C   0  0  0  0  0  4           0  0  0
   -2.7806    0.0000    2.7854 C   0  0  0  0  0  4           0  0  0
   -2.1539    0.0000    1.3927 C   0  0  0  0  0  4           0  0  0
   -0.6267    0.0000    1.3927 C   0  0  0  0  0  4           0  0  0
    0.0000    0.0000    0.0000 C   0  0  0  0  0  4           0  0  0
    1.5278   -0.0000   -0.0000 C   0  0  0  0  0  4           0  0  0
    2.1545    0.0000   -1.3927 C   0  0  0  0  0  4           0  0  0
    3.6817    0.0000   -1.3927 C   0  0  0  0  0  4           0  0  0
    4.3084    0.0000   -2.7854 C   0  0  0  0  0  4           0  0  0
    5.8356    0.0000   -2.7854 C   0  0  0  0  0  4           0  0  0
    6.4623    0.0000   -4.1781 C   0  0  0  0  0  4           0  0  0
    7.9895    0.0000   -4.1781 C   0  0  0  0  0  4           0  0  0
    8.6162    0.0000   -5.5707 C   0  0  0  0  0  4           0  0  0
   10.1434    0.0000   -5.5707 C   0  0  0  0  0  4           0  0  0
   10.7701    0.0000   -6.9634 C   0  0  0  0  0  4           0  0  0
   12.2907    0.0000   -6.9245 C   0  0  0  0  0  4           0  0  0
  1 19  1  0     0  0
  2 19  1  0     0  0
  3 19  1  0     0  0
  4 20  2  0     0  0
  5 21  2  0     0  0
  6 22  2  0     0  0
  7  8  1  0     0  0
  7 10  1  0     0  0
  8 11  2  0     0  0
  9 12  1  0     0  0
  9 20  1  0     0  0
  9 21  1  0     0  0
 10 13  2  0     0  0
 10 20  1  0     0  0
 11 13  1  0     0  0
 11 22  1  0     0  0
 12 14  1  0     0  0
 12 15  2  0     0  0
 13 21  1  0     0  0
 14 16  2  0     0  0
 14 19  1  0     0  0
 15 17  1  0     0  0
 16 18  1  0     0  0
 17 18  2  0     0  0
 22 23  1  0     0  0
 23 24  1  0     0  0
 24 25  1  0     0  0
 25 26  1  0     0  0
 26 27  1  0     0  0
 27 28  1  0     0  0
 28 29  1  0     0  0
 29 30  1  0     0  0
 30 31  1  0     0  0
 31 32  1  0     0  0
 32 33  1  0     0  0
 33 34  1  0     0  0
 34 35  1  0     0  0
 35 36  1  0     0  0
 36 37  1  0     0  0
 37 38  1  0     0  0
 38 39  1  0     0  0
M  END
> <standard_type>
IC50

> <# Confs.>
25

> <canonical_smiles>
O=C1C2=C(C(C(CCCCCCCCCCCCCCCCC)=O)=NN2)C(N1C3=CC=CC=C3C(F)(F)F)=O

> <standard_relation>
=

> <predicted_activity_value>
6.3979400086720375

> <actual_activity_value>
6.494850021680094

> <Compound>
3

> <publication_ID>
nan

> <standard_units>
nM

> hash
9721077515220394765

$$$$
3_
XXILIB    08252103493D 0   0.00000     0.00000

 39 41  0     1  0            999 V2000
  -11.2090    5.1410    2.2323 F   0  0  0  0  0  1           0  0  0
  -12.9459    5.0531    3.5304 F   0  0  0  0  0  1           0  0  0
  -13.0705    6.0816    1.6190 F   0  0  0  0  0  1           0  0  0
  -10.4329    4.9073   -0.2854 O   0  0  0  0  0  2           0  0  0
  -10.0418    0.9110    2.1645 O   0  0  0  0  0  2           0  0  0
   -7.0670    0.2689    2.6301 O   0  0  0  0  0  2           0  0  0
   -7.4063    4.0888    0.3305 N   0  0  0  0  0  3           0  0  0
   -6.4478    3.2802    0.8481 N   0  0  0  0  0  3           0  0  0
  -10.6940    2.8743    0.9516 N   0  0  1  0  0  3           0  0  0
   -8.6444    3.6172    0.5686 C   0  0  0  0  0  4           0  0  0
   -7.1309    2.2699    1.4315 C   0  0  0  0  0  4           0  0  0
  -12.1194    2.7539    0.9824 C   0  0  0  0  0  4           0  0  0
   -8.5073    2.4625    1.2721 C   0  0  0  0  0  4           0  0  0
  -12.9954    3.7085    1.5601 C   0  0  0  0  0  4           0  0  0
  -12.6921    1.6023    0.3923 C   0  0  0  0  0  4           0  0  0
  -14.3874    3.4711    1.5163 C   0  0  0  0  0  4           0  0  0
  -14.0711    1.3927    0.3613 C   0  0  0  0  0  4           0  0  0
  -14.9207    2.3293    0.9239 C   0  0  0  0  0  4           0  0  0
  -12.5612    4.9742    2.2259 C   0  0  1  0  0  4           0  0  0
  -10.0098    3.9387    0.3243 C   0  0  0  0  0  4           0  0  0
   -9.8160    1.9387    1.5474 C   0  0  0  0  0  4           0  0  0
   -6.4443    1.1861    2.1006 C   0  0  0  0  0  4           0  0  0
   -4.9348    1.2066    2.0888 C   0  0  0  0  0  4           0  0  0
   -4.3078   -0.0000    2.7854 C   0  0  0  0  0  4           0  0  0
   -2.7806    0.0000    2.7854 C   0  0  0  0  0  4           0  0  0
   -2.1539   -0.0000    1.3927 C   0  0  0  0  0  4           0  0  0
   -0.6267    0.0000    1.3927 C   0  0  0  0  0  4           0  0  0
    0.0000    0.0000    0.0000 C   0  0  0  0  0  4           0  0  0
    1.5278   -0.0000   -0.0000 C   0  0  0  0  0  4           0  0  0
    2.1545    0.0000   -1.3927 C   0  0  0  0  0  4           0  0  0
    3.6817    0.0000   -1.3927 C   0  0  0  0  0  4           0  0  0
    4.3084    0.0000   -2.7854 C   0  0  0  0  0  4           0  0  0
    5.8356    0.0000   -2.7854 C   0  0  0  0  0  4           0  0  0
    6.4623    0.0000   -4.1781 C   0  0  0  0  0  4           0  0  0
    7.9895    0.0000   -4.1781 C   0  0  0  0  0  4           0  0  0
    8.6162    0.0000   -5.5707 C   0  0  0  0  0  4           0  0  0
   10.1434    0.0000   -5.5707 C   0  0  0  0  0  4           0  0  0
   10.7701    0.0000   -6.9634 C   0  0  0  0  0  4           0  0  0
   12.2907    0.0000   -6.9245 C   0  0  0  0  0  4           0  0  0
  1 19  1  0     0  0
  2 19  1  0     0  0
  3 19  1  0     0  0
  4 20  2  0     0  0
  5 21  2  0     0  0
  6 22  2  0     0  0
  7  8  1  0     0  0
  7 10  1  0     0  0
  8 11  2  0     0  0
  9 12  1  0     0  0
  9 20  1  0     0  0
  9 21  1  0     0  0
 10 13  2  0     0  0
 10 20  1  0     0  0
 11 13  1  0     0  0
 11 22  1  0     0  0
 12 14  1  0     0  0
 12 15  2  0     0  0
 13 21  1  0     0  0
 14 16  2  0     0  0
 14 19  1  0     0  0
 15 17  1  0     0  0
 16 18  1  0     0  0
 17 18  2  0     0  0
 22 23  1  0     0  0
 23 24  1  0     0  0
 24 25  1  0     0  0
 25 26  1  0     0  0
 26 27  1  0     0  0
 27 28  1  0     0  0
 28 29  1  0     0  0
 29 30  1  0     0  0
 30 31  1  0     0  0
 31 32  1  0     0  0
 32 33  1  0     0  0
 33 34  1  0     0  0
 34 35  1  0     0  0
 35 36  1  0     0  0
 36 37  1  0     0  0
 37 38  1  0     0  0
 38 39  1  0     0  0
M  END
> <standard_type>
IC50

> <# Confs.>
25

> <canonical_smiles>
O=C1C2=C(C(C(CCCCCCCCCCCCCCCCC)=O)=NN2)C(N1C3=CC=CC=C3C(F)(F)F)=O

> <standard_relation>
=

> <predicted_activity_value>
6.3979400086720375

> <actual_activity_value>
6.494850021680094

> <Compound>
3

> <publication_ID>
nan

> <standard_units>
nM

> hash
9721077515220394765

$$$$
3_
XXILIB    08252103493D 0   0.00000     0.00000

 39 41  0     1  0            999 V2000
   -5.0015    6.0215   10.3075 F   0  0  0  0  0  1           0  0  0
   -5.0179    8.1911   10.3566 F   0  0  0  0  0  1           0  0  0
   -5.1224    7.0628   12.2121 F   0  0  0  0  0  1           0  0  0
   -3.9723    3.8845   11.4779 O   0  0  0  0  0  2           0  0  0
   -1.5364    5.3028    7.7122 O   0  0  0  0  0  2           0  0  0
   -1.8944    3.2748    5.4235 O   0  0  0  0  0  2           0  0  0
   -4.2485    1.9177    8.9748 N   0  0  0  0  0  3           0  0  0
   -3.9819    1.5236    7.7044 N   0  0  0  0  0  3           0  0  0
   -2.6155    4.9637    9.8268 N   0  0  1  0  0  3           0  0  0
   -3.6227    3.0682    9.2861 C   0  0  0  0  0  4           0  0  0
   -3.1581    2.4777    7.2158 C   0  0  0  0  0  4           0  0  0
   -2.1693    6.1151   10.5494 C   0  0  0  0  0  4           0  0  0
   -2.9230    3.4562    8.1875 C   0  0  0  0  0  4           0  0  0
   -3.0265    7.1046   11.0956 C   0  0  0  0  0  4           0  0  0
   -0.7750    6.2736   10.7322 C   0  0  0  0  0  4           0  0  0
   -2.4553    8.1909   11.7954 C   0  0  0  0  0  4           0  0  0
   -0.2367    7.3558   11.4289 C   0  0  0  0  0  4           0  0  0
   -1.0785    8.3162   11.9623 C   0  0  0  0  0  4           0  0  0
   -4.5175    7.0951   10.9926 C   0  0  1  0  0  4           0  0  0
   -3.4696    3.9787   10.3701 C   0  0  0  0  0  4           0  0  0
   -2.2488    4.6882    8.4886 C   0  0  0  0  0  4           0  0  0
   -2.6430    2.4066    5.8655 C   0  0  0  0  0  4           0  0  0
   -3.0297    1.2061    5.0359 C   0  0  0  0  0  4           0  0  0
   -2.4028    1.2061    3.6426 C   0  0  0  0  0  4           0  0  0
   -2.7806   -0.0000    2.7854 C   0  0  0  0  0  4           0  0  0
   -2.1539   -0.0000    1.3927 C   0  0  0  0  0  4           0  0  0
   -0.6267    0.0000    1.3927 C   0  0  0  0  0  4           0  0  0
    0.0000    0.0000    0.0000 C   0  0  0  0  0  4           0  0  0
    1.5278   -0.0000   -0.0000 C   0  0  0  0  0  4           0  0  0
    2.1545    0.0000   -1.3927 C   0  0  0  0  0  4           0  0  0
    3.6817    0.0000   -1.3927 C   0  0  0  0  0  4           0  0  0
    4.3084    0.0000   -2.7854 C   0  0  0  0  0  4           0  0  0
    5.8356    0.0000   -2.7854 C   0  0  0  0  0  4           0  0  0
    6.4623    0.0000   -4.1781 C   0  0  0  0  0  4           0  0  0
    7.9895    0.0000   -4.1781 C   0  0  0  0  0  4           0  0  0
    8.6162    0.0000   -5.5707 C   0  0  0  0  0  4           0  0  0
   10.1434    0.0000   -5.5707 C   0  0  0  0  0  4           0  0  0
   10.7701    0.0000   -6.9634 C   0  0  0  0  0  4           0  0  0
   12.2907    0.0000   -6.9245 C   0  0  0  0  0  4           0  0  0
  1 19  1  0     0  0
  2 19  1  0     0  0
  3 19  1  0     0  0
  4 20  2  0     0  0
  5 21  2  0     0  0
  6 22  2  0     0  0
  7  8  1  0     0  0
  7 10  1  0     0  0
  8 11  2  0     0  0
  9 12  1  0     0  0
  9 20  1  0     0  0
  9 21  1  0     0  0
 10 13  2  0     0  0
 10 20  1  0     0  0
 11 13  1  0     0  0
 11 22  1  0     0  0
 12 14  1  0     0  0
 12 15  2  0     0  0
 13 21  1  0     0  0
 14 16  2  0     0  0
 14 19  1  0     0  0
 15 17  1  0     0  0
 16 18  1  0     0  0
 17 18  2  0     0  0
 22 23  1  0     0  0
 23 24  1  0     0  0
 24 25  1  0     0  0
 25 26  1  0     0  0
 26 27  1  0     0  0
 27 28  1  0     0  0
 28 29  1  0     0  0
 29 30  1  0     0  0
 30 31  1  0     0  0
 31 32  1  0     0  0
 32 33  1  0     0  0
 33 34  1  0     0  0
 34 35  1  0     0  0
 35 36  1  0     0  0
 36 37  1  0     0  0
 37 38  1  0     0  0
 38 39  1  0     0  0
M  END
> <standard_type>
IC50

> <# Confs.>
25

> <canonical_smiles>
O=C1C2=C(C(C(CCCCCCCCCCCCCCCCC)=O)=NN2)C(N1C3=CC=CC=C3C(F)(F)F)=O

> <standard_relation>
=

> <predicted_activity_value>
6.3979400086720375

> <actual_activity_value>
6.494850021680094

> <Compound>
3

> <publication_ID>
nan

> <standard_units>
nM

> hash
9721077515220394765

$$$$
3_
XXILIB    08252103493D 0   0.00000     0.00000

 39 41  0     1  0            999 V2000
  -11.2090   -4.2556   -3.4793 F   0  0  0  0  0  1           0  0  0
  -12.9459   -3.0875   -4.0523 F   0  0  0  0  0  1           0  0  0
  -13.0705   -5.2570   -3.9873 F   0  0  0  0  0  1           0  0  0
  -10.4329   -6.3191   -2.0181 O   0  0  0  0  0  2           0  0  0
  -10.0418   -2.1993    0.2178 O   0  0  0  0  0  2           0  0  0
   -7.0670   -1.4750    0.5411 O   0  0  0  0  0  2           0  0  0
   -7.4063   -5.3765   -1.6173 N   0  0  0  0  0  3           0  0  0
   -6.4478   -4.5239   -1.1758 N   0  0  0  0  0  3           0  0  0
  -10.6940   -4.2313   -0.8760 N   0  0  1  0  0  3           0  0  0
   -8.6444   -4.9345   -1.3279 C   0  0  0  0  0  4           0  0  0
   -7.1309   -3.5135   -0.5925 C   0  0  0  0  0  4           0  0  0
  -12.1194   -4.1445   -0.7872 C   0  0  0  0  0  4           0  0  0
   -8.5073   -3.7479   -0.6796 C   0  0  0  0  0  4           0  0  0
  -12.9954   -4.1215   -1.9027 C   0  0  0  0  0  4           0  0  0
  -12.6921   -4.0797    0.5052 C   0  0  0  0  0  4           0  0  0
  -14.3874   -4.0407   -1.6751 C   0  0  0  0  0  4           0  0  0
  -14.0711   -4.0017    0.7022 C   0  0  0  0  0  4           0  0  0
  -14.9207   -3.9828   -0.3901 C   0  0  0  0  0  4           0  0  0
  -12.5612   -4.1778   -3.3317 C   0  0  1  0  0  4           0  0  0
  -10.0098   -5.3068   -1.4842 C   0  0  0  0  0  4           0  0  0
   -9.8160   -3.2476   -0.3636 C   0  0  0  0  0  4           0  0  0
   -6.4443   -2.3922    0.0116 C   0  0  0  0  0  4           0  0  0
   -4.9348   -2.4127   -0.0003 C   0  0  0  0  0  4           0  0  0
   -4.3078   -1.2061    0.6963 C   0  0  0  0  0  4           0  0  0
   -2.7806   -1.2061    0.6963 C   0  0  0  0  0  4           0  0  0
   -2.1539    0.0000    1.3927 C   0  0  0  0  0  4           0  0  0
   -0.6267    0.0000    1.3927 C   0  0  0  0  0  4           0  0  0
    0.0000    0.0000    0.0000 C   0  0  0  0  0  4           0  0  0
    1.5278   -0.0000   -0.0000 C   0  0  0  0  0  4           0  0  0
    2.1545    0.0000   -1.3927 C   0  0  0  0  0  4           0  0  0
    3.6817    0.0000   -1.3927 C   0  0  0  0  0  4           0  0  0
    4.3084    0.0000   -2.7854 C   0  0  0  0  0  4           0  0  0
    5.8356    0.0000   -2.7854 C   0  0  0  0  0  4           0  0  0
    6.4623    0.0000   -4.1781 C   0  0  0  0  0  4           0  0  0
    7.9895    0.0000   -4.1781 C   0  0  0  0  0  4           0  0  0
    8.6162    0.0000   -5.5707 C   0  0  0  0  0  4           0  0  0
   10.1434    0.0000   -5.5707 C   0  0  0  0  0  4           0  0  0
   10.7701    0.0000   -6.9634 C   0  0  0  0  0  4           0  0  0
   12.2907    0.0000   -6.9245 C   0  0  0  0  0  4           0  0  0
  1 19  1  0     0  0
  2 19  1  0     0  0
  3 19  1  0     0  0
  4 20  2  0     0  0
  5 21  2  0     0  0
  6 22  2  0     0  0
  7  8  1  0     0  0
  7 10  1  0     0  0
  8 11  2  0     0  0
  9 12  1  0     0  0
  9 20  1  0     0  0
  9 21  1  0     0  0
 10 13  2  0     0  0
 10 20  1  0     0  0
 11 13  1  0     0  0
 11 22  1  0     0  0
 12 14  1  0     0  0
 12 15  2  0     0  0
 13 21  1  0     0  0
 14 16  2  0     0  0
 14 19  1  0     0  0
 15 17  1  0     0  0
 16 18  1  0     0  0
 17 18  2  0     0  0
 22 23  1  0     0  0
 23 24  1  0     0  0
 24 25  1  0     0  0
 25 26  1  0     0  0
 26 27  1  0     0  0
 27 28  1  0     0  0
 28 29  1  0     0  0
 29 30  1  0     0  0
 30 31  1  0     0  0
 31 32  1  0     0  0
 32 33  1  0     0  0
 33 34  1  0     0  0
 34 35  1  0     0  0
 35 36  1  0     0  0
 36 37  1  0     0  0
 37 38  1  0     0  0
 38 39  1  0     0  0
M  END
> <standard_type>
IC50

> <# Confs.>
25

> <canonical_smiles>
O=C1C2=C(C(C(CCCCCCCCCCCCCCCCC)=O)=NN2)C(N1C3=CC=CC=C3C(F)(F)F)=O

> <standard_relation>
=

> <predicted_activity_value>
6.3979400086720375

> <actual_activity_value>
6.494850021680094

> <Compound>
3

> <publication_ID>
nan

> <standard_units>
nM

> hash
9721077515220394765

$$$$
3_
XXILIB    08252103493D 0   0.00000     0.00000

 39 41  0     1  0            999 V2000
   -3.0965    7.2276   11.1648 F   0  0  0  0  0  1           0  0  0
   -3.1129    9.3972   11.2138 F   0  0  0  0  0  1           0  0  0
   -3.2173    8.2689   13.0693 F   0  0  0  0  0  1           0  0  0
   -2.0673    5.0906   12.3351 O   0  0  0  0  0  2           0  0  0
    0.3687    6.5089    8.5694 O   0  0  0  0  0  2           0  0  0
    0.0106    4.4809    6.2807 O   0  0  0  0  0  2           0  0  0
   -2.3434    3.1238    9.8321 N   0  0  0  0  0  3           0  0  0
   -2.0769    2.7297    8.5616 N   0  0  0  0  0  3           0  0  0
   -0.7105    6.1698   10.6840 N   0  0  1  0  0  3           0  0  0
   -1.7176    4.2743   10.1434 C   0  0  0  0  0  4           0  0  0
   -1.2531    3.6838    8.0731 C   0  0  0  0  0  4           0  0  0
   -0.2642    7.3212   11.4066 C   0  0  0  0  0  4           0  0  0
   -1.0179    4.6623    9.0448 C   0  0  0  0  0  4           0  0  0
   -1.1215    8.3107   11.9529 C   0  0  0  0  0  4           0  0  0
    1.1300    7.4797   11.5894 C   0  0  0  0  0  4           0  0  0
   -0.5502    9.3970   12.6526 C   0  0  0  0  0  4           0  0  0
    1.6683    8.5619   12.2862 C   0  0  0  0  0  4           0  0  0
    0.8265    9.5223   12.8195 C   0  0  0  0  0  4           0  0  0
   -2.6124    8.3012   11.8498 C   0  0  1  0  0  4           0  0  0
   -1.5646    5.1848   11.2273 C   0  0  0  0  0  4           0  0  0
   -0.3437    5.8943    9.3458 C   0  0  0  0  0  4           0  0  0
   -0.7379    3.6127    6.7228 C   0  0  0  0  0  4           0  0  0
   -1.1247    2.4122    5.8931 C   0  0  0  0  0  4           0  0  0
   -0.4977    2.4122    4.4999 C   0  0  0  0  0  4           0  0  0
   -0.8756    1.2061    3.6426 C   0  0  0  0  0  4           0  0  0
   -0.2489    1.2061    2.2499 C   0  0  0  0  0  4           0  0  0
   -0.6267   -0.0000    1.3927 C   0  0  0  0  0  4           0  0  0
    0.0000    0.0000    0.0000 C   0  0  0  0  0  4           0  0  0
    1.5278   -0.0000   -0.0000 C   0  0  0  0  0  4           0  0  0
    2.1545    0.0000   -1.3927 C   0  0  0  0  0  4           0  0  0
    3.6817    0.0000   -1.3927 C   0  0  0  0  0  4           0  0  0
    4.3084    0.0000   -2.7854 C   0  0  0  0  0  4           0  0  0
    5.8356    0.0000   -2.7854 C   0  0  0  0  0  4           0  0  0
    6.4623    0.0000   -4.1781 C   0  0  0  0  0  4           0  0  0
    7.9895    0.0000   -4.1781 C   0  0  0  0  0  4           0  0  0
    8.6162    0.0000   -5.5707 C   0  0  0  0  0  4           0  0  0
   10.1434    0.0000   -5.5707 C   0  0  0  0  0  4           0  0  0
   10.7701    0.0000   -6.9634 C   0  0  0  0  0  4           0  0  0
   12.2907    0.0000   -6.9245 C   0  0  0  0  0  4           0  0  0
  1 19  1  0     0  0
  2 19  1  0     0  0
  3 19  1  0     0  0
  4 20  2  0     0  0
  5 21  2  0     0  0
  6 22  2  0     0  0
  7  8  1  0     0  0
  7 10  1  0     0  0
  8 11  2  0     0  0
  9 12  1  0     0  0
  9 20  1  0     0  0
  9 21  1  0     0  0
 10 13  2  0     0  0
 10 20  1  0     0  0
 11 13  1  0     0  0
 11 22  1  0     0  0
 12 14  1  0     0  0
 12 15  2  0     0  0
 13 21  1  0     0  0
 14 16  2  0     0  0
 14 19  1  0     0  0
 15 17  1  0     0  0
 16 18  1  0     0  0
 17 18  2  0     0  0
 22 23  1  0     0  0
 23 24  1  0     0  0
 24 25  1  0     0  0
 25 26  1  0     0  0
 26 27  1  0     0  0
 27 28  1  0     0  0
 28 29  1  0     0  0
 29 30  1  0     0  0
 30 31  1  0     0  0
 31 32  1  0     0  0
 32 33  1  0     0  0
 33 34  1  0     0  0
 34 35  1  0     0  0
 35 36  1  0     0  0
 36 37  1  0     0  0
 37 38  1  0     0  0
 38 39  1  0     0  0
M  END
> <standard_type>
IC50

> <# Confs.>
25

> <canonical_smiles>
O=C1C2=C(C(C(CCCCCCCCCCCCCCCCC)=O)=NN2)C(N1C3=CC=CC=C3C(F)(F)F)=O

> <standard_relation>
=

> <predicted_activity_value>
6.3979400086720375

> <actual_activity_value>
6.494850021680094

> <Compound>
3

> <publication_ID>
nan

> <standard_units>
nM

> hash
9721077515220394765

$$$$
3_
XXILIB    08252103493D 0   0.00000     0.00000

 39 41  0     1  0            999 V2000
  -11.2090   -2.0915    7.5142 F   0  0  0  0  0  1           0  0  0
  -12.9459   -3.1718    6.7890 F   0  0  0  0  0  1           0  0  0
  -13.0705   -2.0307    8.6354 F   0  0  0  0  0  1           0  0  0
  -10.4329    0.2057    8.5706 O   0  0  0  0  0  2           0  0  0
  -10.0418    0.0822    3.8847 O   0  0  0  0  0  2           0  0  0
   -7.0670   -0.0000    3.0959 O   0  0  0  0  0  2           0  0  0
   -7.4063    0.0815    7.5538 N   0  0  0  0  0  3           0  0  0
   -6.4478    0.0376    6.5947 N   0  0  0  0  0  3           0  0  0
  -10.6940    0.1509    6.1915 N   0  0  1  0  0  3           0  0  0
   -8.6444    0.1112    7.0263 C   0  0  0  0  0  4           0  0  0
   -7.1309    0.0375    5.4281 C   0  0  0  0  0  4           0  0  0
  -12.1194    0.1844    6.0718 C   0  0  0  0  0  4           0  0  0
   -8.5073    0.0793    5.6746 C   0  0  0  0  0  4           0  0  0
  -12.9954   -0.7932    6.6097 C   0  0  0  0  0  4           0  0  0
  -12.6921    1.2713    5.3695 C   0  0  0  0  0  4           0  0  0
  -14.3874   -0.6365    6.4260 C   0  0  0  0  0  4           0  0  0
  -14.0711    1.4029    5.2035 C   0  0  0  0  0  4           0  0  0
  -14.9207    0.4475    5.7333 C   0  0  0  0  0  4           0  0  0
  -12.5612   -2.0025    7.3729 C   0  0  1  0  0  4           0  0  0
  -10.0098    0.1620    7.4270 C   0  0  0  0  0  4           0  0  0
   -9.8160    0.1028    5.0833 C   0  0  0  0  0  4           0  0  0
   -6.4443   -0.0000    4.1549 C   0  0  0  0  0  4           0  0  0
   -4.9348   -0.0000    4.1786 C   0  0  0  0  0  4           0  0  0
   -4.3078   -0.0000    2.7854 C   0  0  0  0  0  4           0  0  0
   -2.7806   -0.0000    2.7854 C   0  0  0  0  0  4           0  0  0
   -2.1539   -0.0000    1.3927 C   0  0  0  0  0  4           0  0  0
   -0.6267    0.0000    1.3927 C   0  0  0  0  0  4           0  0  0
    0.0000   -0.0000    0.0000 C   0  0  0  0  0  4           0  0  0
    1.5278    0.0000    0.0000 C   0  0  0  0  0  4           0  0  0
    2.1545   -1.2061    0.6963 C   0  0  0  0  0  4           0  0  0
    3.6817   -1.2061    0.6963 C   0  0  0  0  0  4           0  0  0
    4.3084   -2.4122    1.3927 C   0  0  0  0  0  4           0  0  0
    5.8356   -2.4122    1.3927 C   0  0  0  0  0  4           0  0  0
    6.4623   -3.6183    2.0890 C   0  0  0  0  0  4           0  0  0
    7.9895   -3.6183    2.0890 C   0  0  0  0  0  4           0  0  0
    8.6162   -4.8244    2.7854 C   0  0  0  0  0  4           0  0  0
   10.1434   -4.8244    2.7854 C   0  0  0  0  0  4           0  0  0
   10.7701   -6.0305    3.4817 C   0  0  0  0  0  4           0  0  0
   12.2907   -5.9968    3.4622 C   0  0  0  0  0  4           0  0  0
  1 19  1  0     0  0
  2 19  1  0     0  0
  3 19  1  0     0  0
  4 20  2  0     0  0
  5 21  2  0     0  0
  6 22  2  0     0  0
  7  8  1  0     0  0
  7 10  1  0     0  0
  8 11  2  0     0  0
  9 12  1  0     0  0
  9 20  1  0     0  0
  9 21  1  0     0  0
 10 13  2  0     0  0
 10 20  1  0     0  0
 11 13  1  0     0  0
 11 22  1  0     0  0
 12 14  1  0     0  0
 12 15  2  0     0  0
 13 21  1  0     0  0
 14 16  2  0     0  0
 14 19  1  0     0  0
 15 17  1  0     0  0
 16 18  1  0     0  0
 17 18  2  0     0  0
 22 23  1  0     0  0
 23 24  1  0     0  0
 24 25  1  0     0  0
 25 26  1  0     0  0
 26 27  1  0     0  0
 27 28  1  0     0  0
 28 29  1  0     0  0
 29 30  1  0     0  0
 30 31  1  0     0  0
 31 32  1  0     0  0
 32 33  1  0     0  0
 33 34  1  0     0  0
 34 35  1  0     0  0
 35 36  1  0     0  0
 36 37  1  0     0  0
 37 38  1  0     0  0
 38 39  1  0     0  0
M  END
> <standard_type>
IC50

> <# Confs.>
25

> <canonical_smiles>
O=C1C2=C(C(C(CCCCCCCCCCCCCCCCC)=O)=NN2)C(N1C3=CC=CC=C3C(F)(F)F)=O

> <standard_relation>
=

> <predicted_activity_value>
6.3979400086720375

> <actual_activity_value>
6.494850021680094

> <Compound>
3

> <publication_ID>
nan

> <standard_units>
nM

> hash
9721077515220394765

$$$$
3_
XXILIB    08252103493D 0   0.00000     0.00000

 39 41  0     1  0            999 V2000
  -11.2090   -2.0915    7.5142 F   0  0  0  0  0  1           0  0  0
  -12.9459   -3.1718    6.7890 F   0  0  0  0  0  1           0  0  0
  -13.0705   -2.0307    8.6354 F   0  0  0  0  0  1           0  0  0
  -10.4329    0.2057    8.5706 O   0  0  0  0  0  2           0  0  0
  -10.0418    0.0822    3.8847 O   0  0  0  0  0  2           0  0  0
   -7.0670   -0.0000    3.0959 O   0  0  0  0  0  2           0  0  0
   -7.4063    0.0815    7.5538 N   0  0  0  0  0  3           0  0  0
   -6.4478    0.0376    6.5947 N   0  0  0  0  0  3           0  0  0
  -10.6940    0.1509    6.1915 N   0  0  1  0  0  3           0  0  0
   -8.6444    0.1112    7.0263 C   0  0  0  0  0  4           0  0  0
   -7.1309    0.0375    5.4281 C   0  0  0  0  0  4           0  0  0
  -12.1194    0.1844    6.0718 C   0  0  0  0  0  4           0  0  0
   -8.5073    0.0793    5.6746 C   0  0  0  0  0  4           0  0  0
  -12.9954   -0.7932    6.6097 C   0  0  0  0  0  4           0  0  0
  -12.6921    1.2713    5.3695 C   0  0  0  0  0  4           0  0  0
  -14.3874   -0.6365    6.4260 C   0  0  0  0  0  4           0  0  0
  -14.0711    1.4029    5.2035 C   0  0  0  0  0  4           0  0  0
  -14.9207    0.4475    5.7333 C   0  0  0  0  0  4           0  0  0
  -12.5612   -2.0025    7.3729 C   0  0  1  0  0  4           0  0  0
  -10.0098    0.1620    7.4270 C   0  0  0  0  0  4           0  0  0
   -9.8160    0.1028    5.0833 C   0  0  0  0  0  4           0  0  0
   -6.4443   -0.0000    4.1549 C   0  0  0  0  0  4           0  0  0
   -4.9348   -0.0000    4.1786 C   0  0  0  0  0  4           0  0  0
   -4.3078   -0.0000    2.7854 C   0  0  0  0  0  4           0  0  0
   -2.7806   -0.0000    2.7854 C   0  0  0  0  0  4           0  0  0
   -2.1539   -0.0000    1.3927 C   0  0  0  0  0  4           0  0  0
   -0.6267    0.0000    1.3927 C   0  0  0  0  0  4           0  0  0
    0.0000   -0.0000    0.0000 C   0  0  0  0  0  4           0  0  0
    1.5278    0.0000   -0.0000 C   0  0  0  0  0  4           0  0  0
    2.1545    0.0000   -1.3927 C   0  0  0  0  0  4           0  0  0
    1.7767    1.2061   -2.2499 C   0  0  0  0  0  4           0  0  0
    2.4034    1.2061   -3.6426 C   0  0  0  0  0  4           0  0  0
    2.0255    2.4122   -4.4999 C   0  0  0  0  0  4           0  0  0
    2.6522    2.4122   -5.8926 C   0  0  0  0  0  4           0  0  0
    2.2744    3.6183   -6.7498 C   0  0  0  0  0  4           0  0  0
    2.9011    3.6183   -8.1425 C   0  0  0  0  0  4           0  0  0
    2.5233    4.8244   -8.9998 C   0  0  0  0  0  4           0  0  0
    3.1500    4.8244  -10.3925 C   0  0  0  0  0  4           0  0  0
    2.7519    6.0391  -11.2169 C   0  0  0  0  0  4           0  0  0
  1 19  1  0     0  0
  2 19  1  0     0  0
  3 19  1  0     0  0
  4 20  2  0     0  0
  5 21  2  0     0  0
  6 22  2  0     0  0
  7  8  1  0     0  0
  7 10  1  0     0  0
  8 11  2  0     0  0
  9 12  1  0     0  0
  9 20  1  0     0  0
  9 21  1  0     0  0
 10 13  2  0     0  0
 10 20  1  0     0  0
 11 13  1  0     0  0
 11 22  1  0     0  0
 12 14  1  0     0  0
 12 15  2  0     0  0
 13 21  1  0     0  0
 14 16  2  0     0  0
 14 19  1  0     0  0
 15 17  1  0     0  0
 16 18  1  0     0  0
 17 18  2  0     0  0
 22 23  1  0     0  0
 23 24  1  0     0  0
 24 25  1  0     0  0
 25 26  1  0     0  0
 26 27  1  0     0  0
 27 28  1  0     0  0
 28 29  1  0     0  0
 29 30  1  0     0  0
 30 31  1  0     0  0
 31 32  1  0     0  0
 32 33  1  0     0  0
 33 34  1  0     0  0
 34 35  1  0     0  0
 35 36  1  0     0  0
 36 37  1  0     0  0
 37 38  1  0     0  0
 38 39  1  0     0  0
M  END
> <standard_type>
IC50

> <# Confs.>
25

> <canonical_smiles>
O=C1C2=C(C(C(CCCCCCCCCCCCCCCCC)=O)=NN2)C(N1C3=CC=CC=C3C(F)(F)F)=O

> <standard_relation>
=

> <predicted_activity_value>
6.3979400086720375

> <actual_activity_value>
6.494850021680094

> <Compound>
3

> <publication_ID>
nan

> <standard_units>
nM

> hash
9721077515220394765

$$$$
3_
XXILIB    08252103493D 0   0.00000     0.00000

 39 41  0     1  0            999 V2000
  -11.2090   -2.0915    7.5142 F   0  0  0  0  0  1           0  0  0
  -12.9459   -3.1718    6.7890 F   0  0  0  0  0  1           0  0  0
  -13.0705   -2.0307    8.6354 F   0  0  0  0  0  1           0  0  0
  -10.4329    0.2057    8.5706 O   0  0  0  0  0  2           0  0  0
  -10.0418    0.0822    3.8847 O   0  0  0  0  0  2           0  0  0
   -7.0670   -0.0000    3.0959 O   0  0  0  0  0  2           0  0  0
   -7.4063    0.0815    7.5538 N   0  0  0  0  0  3           0  0  0
   -6.4478    0.0376    6.5947 N   0  0  0  0  0  3           0  0  0
  -10.6940    0.1509    6.1915 N   0  0  1  0  0  3           0  0  0
   -8.6444    0.1112    7.0263 C   0  0  0  0  0  4           0  0  0
   -7.1309    0.0375    5.4281 C   0  0  0  0  0  4           0  0  0
  -12.1194    0.1844    6.0718 C   0  0  0  0  0  4           0  0  0
   -8.5073    0.0793    5.6746 C   0  0  0  0  0  4           0  0  0
  -12.9954   -0.7932    6.6097 C   0  0  0  0  0  4           0  0  0
  -12.6921    1.2713    5.3695 C   0  0  0  0  0  4           0  0  0
  -14.3874   -0.6365    6.4260 C   0  0  0  0  0  4           0  0  0
  -14.0711    1.4029    5.2035 C   0  0  0  0  0  4           0  0  0
  -14.9207    0.4475    5.7333 C   0  0  0  0  0  4           0  0  0
  -12.5612   -2.0025    7.3729 C   0  0  1  0  0  4           0  0  0
  -10.0098    0.1620    7.4270 C   0  0  0  0  0  4           0  0  0
   -9.8160    0.1028    5.0833 C   0  0  0  0  0  4           0  0  0
   -6.4443   -0.0000    4.1549 C   0  0  0  0  0  4           0  0  0
   -4.9348   -0.0000    4.1786 C   0  0  0  0  0  4           0  0  0
   -4.3078   -0.0000    2.7854 C   0  0  0  0  0  4           0  0  0
   -2.7806   -0.0000    2.7854 C   0  0  0  0  0  4           0  0  0
   -2.1539   -0.0000    1.3927 C   0  0  0  0  0  4           0  0  0
   -0.6267    0.0000    1.3927 C   0  0  0  0  0  4           0  0  0
    0.0000   -0.0000    0.0000 C   0  0  0  0  0  4           0  0  0
    1.5278   -0.0000   -0.0000 C   0  0  0  0  0  4           0  0  0
    2.1545    0.0000   -1.3927 C   0  0  0  0  0  4           0  0  0
    3.6817   -0.0000   -1.3927 C   0  0  0  0  0  4           0  0  0
    4.3084   -0.0000   -2.7854 C   0  0  0  0  0  4           0  0  0
    3.9306    1.2061   -3.6426 C   0  0  0  0  0  4           0  0  0
    4.5573    1.2061   -5.0353 C   0  0  0  0  0  4           0  0  0
    4.1794    2.4122   -5.8926 C   0  0  0  0  0  4           0  0  0
    4.8061    2.4122   -7.2853 C   0  0  0  0  0  4           0  0  0
    4.4283    3.6183   -8.1425 C   0  0  0  0  0  4           0  0  0
    5.0550    3.6183   -9.5352 C   0  0  0  0  0  4           0  0  0
    4.6569    4.8330  -10.3596 C   0  0  0  0  0  4           0  0  0
  1 19  1  0     0  0
  2 19  1  0     0  0
  3 19  1  0     0  0
  4 20  2  0     0  0
  5 21  2  0     0  0
  6 22  2  0     0  0
  7  8  1  0     0  0
  7 10  1  0     0  0
  8 11  2  0     0  0
  9 12  1  0     0  0
  9 20  1  0     0  0
  9 21  1  0     0  0
 10 13  2  0     0  0
 10 20  1  0     0  0
 11 13  1  0     0  0
 11 22  1  0     0  0
 12 14  1  0     0  0
 12 15  2  0     0  0
 13 21  1  0     0  0
 14 16  2  0     0  0
 14 19  1  0     0  0
 15 17  1  0     0  0
 16 18  1  0     0  0
 17 18  2  0     0  0
 22 23  1  0     0  0
 23 24  1  0     0  0
 24 25  1  0     0  0
 25 26  1  0     0  0
 26 27  1  0     0  0
 27 28  1  0     0  0
 28 29  1  0     0  0
 29 30  1  0     0  0
 30 31  1  0     0  0
 31 32  1  0     0  0
 32 33  1  0     0  0
 33 34  1  0     0  0
 34 35  1  0     0  0
 35 36  1  0     0  0
 36 37  1  0     0  0
 37 38  1  0     0  0
 38 39  1  0     0  0
M  END
> <standard_type>
IC50

> <# Confs.>
25

> <canonical_smiles>
O=C1C2=C(C(C(CCCCCCCCCCCCCCCCC)=O)=NN2)C(N1C3=CC=CC=C3C(F)(F)F)=O

> <standard_relation>
=

> <predicted_activity_value>
6.3979400086720375

> <actual_activity_value>
6.494850021680094

> <Compound>
3

> <publication_ID>
nan

> <standard_units>
nM

> hash
9721077515220394765

$$$$
3_
XXILIB    08252103493D 0   0.00000     0.00000

 39 41  0     1  0            999 V2000
  -11.2090   -2.0915    7.5142 F   0  0  0  0  0  1           0  0  0
  -12.9459   -3.1718    6.7890 F   0  0  0  0  0  1           0  0  0
  -13.0705   -2.0307    8.6354 F   0  0  0  0  0  1           0  0  0
  -10.4329    0.2057    8.5706 O   0  0  0  0  0  2           0  0  0
  -10.0418    0.0822    3.8847 O   0  0  0  0  0  2           0  0  0
   -7.0670   -0.0000    3.0959 O   0  0  0  0  0  2           0  0  0
   -7.4063    0.0815    7.5538 N   0  0  0  0  0  3           0  0  0
   -6.4478    0.0376    6.5947 N   0  0  0  0  0  3           0  0  0
  -10.6940    0.1509    6.1915 N   0  0  1  0  0  3           0  0  0
   -8.6444    0.1112    7.0263 C   0  0  0  0  0  4           0  0  0
   -7.1309    0.0375    5.4281 C   0  0  0  0  0  4           0  0  0
  -12.1194    0.1844    6.0718 C   0  0  0  0  0  4           0  0  0
   -8.5073    0.0793    5.6746 C   0  0  0  0  0  4           0  0  0
  -12.9954   -0.7932    6.6097 C   0  0  0  0  0  4           0  0  0
  -12.6921    1.2713    5.3695 C   0  0  0  0  0  4           0  0  0
  -14.3874   -0.6365    6.4260 C   0  0  0  0  0  4           0  0  0
  -14.0711    1.4029    5.2035 C   0  0  0  0  0  4           0  0  0
  -14.9207    0.4475    5.7333 C   0  0  0  0  0  4           0  0  0
  -12.5612   -2.0025    7.3729 C   0  0  1  0  0  4           0  0  0
  -10.0098    0.1620    7.4270 C   0  0  0  0  0  4           0  0  0
   -9.8160    0.1028    5.0833 C   0  0  0  0  0  4           0  0  0
   -6.4443   -0.0000    4.1549 C   0  0  0  0  0  4           0  0  0
   -4.9348   -0.0000    4.1786 C   0  0  0  0  0  4           0  0  0
   -4.3078   -0.0000    2.7854 C   0  0  0  0  0  4           0  0  0
   -2.7806   -0.0000    2.7854 C   0  0  0  0  0  4           0  0  0
   -2.1539   -0.0000    1.3927 C   0  0  0  0  0  4           0  0  0
   -0.6267    0.0000    1.3927 C   0  0  0  0  0  4           0  0  0
    0.0000   -0.0000    0.0000 C   0  0  0  0  0  4           0  0  0
    1.5278   -0.0000   -0.0000 C   0  0  0  0  0  4           0  0  0
    2.1545    0.0000   -1.3927 C   0  0  0  0  0  4           0  0  0
    3.6817   -0.0000   -1.3927 C   0  0  0  0  0  4           0  0  0
    4.3084   -1.2061   -0.6963 C   0  0  0  0  0  4           0  0  0
    5.8356   -1.2061   -0.6963 C   0  0  0  0  0  4           0  0  0
    6.4623   -2.4122    0.0000 C   0  0  0  0  0  4           0  0  0
    7.9895   -2.4122    0.0000 C   0  0  0  0  0  4           0  0  0
    8.6162   -3.6183    0.6963 C   0  0  0  0  0  4           0  0  0
   10.1434   -3.6183    0.6963 C   0  0  0  0  0  4           0  0  0
   10.7701   -4.8244    1.3927 C   0  0  0  0  0  4           0  0  0
   12.2907   -4.7907    1.3732 C   0  0  0  0  0  4           0  0  0
  1 19  1  0     0  0
  2 19  1  0     0  0
  3 19  1  0     0  0
  4 20  2  0     0  0
  5 21  2  0     0  0
  6 22  2  0     0  0
  7  8  1  0     0  0
  7 10  1  0     0  0
  8 11  2  0     0  0
  9 12  1  0     0  0
  9 20  1  0     0  0
  9 21  1  0     0  0
 10 13  2  0     0  0
 10 20  1  0     0  0
 11 13  1  0     0  0
 11 22  1  0     0  0
 12 14  1  0     0  0
 12 15  2  0     0  0
 13 21  1  0     0  0
 14 16  2  0     0  0
 14 19  1  0     0  0
 15 17  1  0     0  0
 16 18  1  0     0  0
 17 18  2  0     0  0
 22 23  1  0     0  0
 23 24  1  0     0  0
 24 25  1  0     0  0
 25 26  1  0     0  0
 26 27  1  0     0  0
 27 28  1  0     0  0
 28 29  1  0     0  0
 29 30  1  0     0  0
 30 31  1  0     0  0
 31 32  1  0     0  0
 32 33  1  0     0  0
 33 34  1  0     0  0
 34 35  1  0     0  0
 35 36  1  0     0  0
 36 37  1  0     0  0
 37 38  1  0     0  0
 38 39  1  0     0  0
M  END
> <standard_type>
IC50

> <# Confs.>
25

> <canonical_smiles>
O=C1C2=C(C(C(CCCCCCCCCCCCCCCCC)=O)=NN2)C(N1C3=CC=CC=C3C(F)(F)F)=O

> <standard_relation>
=

> <predicted_activity_value>
6.3979400086720375

> <actual_activity_value>
6.494850021680094

> <Compound>
3

> <publication_ID>
nan

> <standard_units>
nM

> hash
9721077515220394765

$$$$
3_
XXILIB    08252103493D 0   0.00000     0.00000

 39 41  0     1  0            999 V2000
  -11.2090   -2.0915    7.5142 F   0  0  0  0  0  1           0  0  0
  -12.9459   -3.1718    6.7890 F   0  0  0  0  0  1           0  0  0
  -13.0705   -2.0307    8.6354 F   0  0  0  0  0  1           0  0  0
  -10.4329    0.2057    8.5706 O   0  0  0  0  0  2           0  0  0
  -10.0418    0.0822    3.8847 O   0  0  0  0  0  2           0  0  0
   -7.0670   -0.0000    3.0959 O   0  0  0  0  0  2           0  0  0
   -7.4063    0.0815    7.5538 N   0  0  0  0  0  3           0  0  0
   -6.4478    0.0376    6.5947 N   0  0  0  0  0  3           0  0  0
  -10.6940    0.1509    6.1915 N   0  0  1  0  0  3           0  0  0
   -8.6444    0.1112    7.0263 C   0  0  0  0  0  4           0  0  0
   -7.1309    0.0375    5.4281 C   0  0  0  0  0  4           0  0  0
  -12.1194    0.1844    6.0718 C   0  0  0  0  0  4           0  0  0
   -8.5073    0.0793    5.6746 C   0  0  0  0  0  4           0  0  0
  -12.9954   -0.7932    6.6097 C   0  0  0  0  0  4           0  0  0
  -12.6921    1.2713    5.3695 C   0  0  0  0  0  4           0  0  0
  -14.3874   -0.6365    6.4260 C   0  0  0  0  0  4           0  0  0
  -14.0711    1.4029    5.2035 C   0  0  0  0  0  4           0  0  0
  -14.9207    0.4475    5.7333 C   0  0  0  0  0  4           0  0  0
  -12.5612   -2.0025    7.3729 C   0  0  1  0  0  4           0  0  0
  -10.0098    0.1620    7.4270 C   0  0  0  0  0  4           0  0  0
   -9.8160    0.1028    5.0833 C   0  0  0  0  0  4           0  0  0
   -6.4443   -0.0000    4.1549 C   0  0  0  0  0  4           0  0  0
   -4.9348   -0.0000    4.1786 C   0  0  0  0  0  4           0  0  0
   -4.3078   -0.0000    2.7854 C   0  0  0  0  0  4           0  0  0
   -2.7806   -0.0000    2.7854 C   0  0  0  0  0  4           0  0  0
   -2.1539   -0.0000    1.3927 C   0  0  0  0  0  4           0  0  0
   -0.6267    0.0000    1.3927 C   0  0  0  0  0  4           0  0  0
    0.0000   -0.0000    0.0000 C   0  0  0  0  0  4           0  0  0
    1.5278    0.0000    0.0000 C   0  0  0  0  0  4           0  0  0
    2.1545    0.0000   -1.3927 C   0  0  0  0  0  4           0  0  0
    3.6817    0.0000   -1.3927 C   0  0  0  0  0  4           0  0  0
    4.3084    0.0000   -2.7854 C   0  0  0  0  0  4           0  0  0
    5.8356    0.0000   -2.7854 C   0  0  0  0  0  4           0  0  0
    6.4623   -1.2061   -2.0890 C   0  0  0  0  0  4           0  0  0
    7.9895   -1.2061   -2.0890 C   0  0  0  0  0  4           0  0  0
    8.6162   -2.4122   -1.3927 C   0  0  0  0  0  4           0  0  0
   10.1434   -2.4122   -1.3927 C   0  0  0  0  0  4           0  0  0
   10.7701   -3.6183   -0.6963 C   0  0  0  0  0  4           0  0  0
   12.2907   -3.5846   -0.7158 C   0  0  0  0  0  4           0  0  0
  1 19  1  0     0  0
  2 19  1  0     0  0
  3 19  1  0     0  0
  4 20  2  0     0  0
  5 21  2  0     0  0
  6 22  2  0     0  0
  7  8  1  0     0  0
  7 10  1  0     0  0
  8 11  2  0     0  0
  9 12  1  0     0  0
  9 20  1  0     0  0
  9 21  1  0     0  0
 10 13  2  0     0  0
 10 20  1  0     0  0
 11 13  1  0     0  0
 11 22  1  0     0  0
 12 14  1  0     0  0
 12 15  2  0     0  0
 13 21  1  0     0  0
 14 16  2  0     0  0
 14 19  1  0     0  0
 15 17  1  0     0  0
 16 18  1  0     0  0
 17 18  2  0     0  0
 22 23  1  0     0  0
 23 24  1  0     0  0
 24 25  1  0     0  0
 25 26  1  0     0  0
 26 27  1  0     0  0
 27 28  1  0     0  0
 28 29  1  0     0  0
 29 30  1  0     0  0
 30 31  1  0     0  0
 31 32  1  0     0  0
 32 33  1  0     0  0
 33 34  1  0     0  0
 34 35  1  0     0  0
 35 36  1  0     0  0
 36 37  1  0     0  0
 37 38  1  0     0  0
 38 39  1  0     0  0
M  END
> <standard_type>
IC50

> <# Confs.>
25

> <canonical_smiles>
O=C1C2=C(C(C(CCCCCCCCCCCCCCCCC)=O)=NN2)C(N1C3=CC=CC=C3C(F)(F)F)=O

> <standard_relation>
=

> <predicted_activity_value>
6.3979400086720375

> <actual_activity_value>
6.494850021680094

> <Compound>
3

> <publication_ID>
nan

> <standard_units>
nM

> hash
9721077515220394765

$$$$
3_
XXILIB    08252103493D 0   0.00000     0.00000

 39 41  0     1  0            999 V2000
  -11.2090   -2.0915    7.5142 F   0  0  0  0  0  1           0  0  0
  -12.9459   -3.1718    6.7890 F   0  0  0  0  0  1           0  0  0
  -13.0705   -2.0307    8.6354 F   0  0  0  0  0  1           0  0  0
  -10.4329    0.2057    8.5706 O   0  0  0  0  0  2           0  0  0
  -10.0418    0.0822    3.8847 O   0  0  0  0  0  2           0  0  0
   -7.0670   -0.0000    3.0959 O   0  0  0  0  0  2           0  0  0
   -7.4063    0.0815    7.5538 N   0  0  0  0  0  3           0  0  0
   -6.4478    0.0376    6.5947 N   0  0  0  0  0  3           0  0  0
  -10.6940    0.1509    6.1915 N   0  0  1  0  0  3           0  0  0
   -8.6444    0.1112    7.0263 C   0  0  0  0  0  4           0  0  0
   -7.1309    0.0375    5.4281 C   0  0  0  0  0  4           0  0  0
  -12.1194    0.1844    6.0718 C   0  0  0  0  0  4           0  0  0
   -8.5073    0.0793    5.6746 C   0  0  0  0  0  4           0  0  0
  -12.9954   -0.7932    6.6097 C   0  0  0  0  0  4           0  0  0
  -12.6921    1.2713    5.3695 C   0  0  0  0  0  4           0  0  0
  -14.3874   -0.6365    6.4260 C   0  0  0  0  0  4           0  0  0
  -14.0711    1.4029    5.2035 C   0  0  0  0  0  4           0  0  0
  -14.9207    0.4475    5.7333 C   0  0  0  0  0  4           0  0  0
  -12.5612   -2.0025    7.3729 C   0  0  1  0  0  4           0  0  0
  -10.0098    0.1620    7.4270 C   0  0  0  0  0  4           0  0  0
   -9.8160    0.1028    5.0833 C   0  0  0  0  0  4           0  0  0
   -6.4443   -0.0000    4.1549 C   0  0  0  0  0  4           0  0  0
   -4.9348   -0.0000    4.1786 C   0  0  0  0  0  4           0  0  0
   -4.3078   -0.0000    2.7854 C   0  0  0  0  0  4           0  0  0
   -2.7806   -0.0000    2.7854 C   0  0  0  0  0  4           0  0  0
   -2.1539   -0.0000    1.3927 C   0  0  0  0  0  4           0  0  0
   -0.6267    0.0000    1.3927 C   0  0  0  0  0  4           0  0  0
    0.0000   -0.0000    0.0000 C   0  0  0  0  0  4           0  0  0
    1.5278    0.0000   -0.0000 C   0  0  0  0  0  4           0  0  0
    2.1545    0.0000   -1.3927 C   0  0  0  0  0  4           0  0  0
    3.6817   -0.0000   -1.3927 C   0  0  0  0  0  4           0  0  0
    4.3084    0.0000   -2.7854 C   0  0  0  0  0  4           0  0  0
    5.8356   -0.0000   -2.7854 C   0  0  0  0  0  4           0  0  0
    6.4623    0.0000   -4.1781 C   0  0  0  0  0  4           0  0  0
    6.0845    1.2061   -5.0353 C   0  0  0  0  0  4           0  0  0
    6.7112    1.2061   -6.4280 C   0  0  0  0  0  4           0  0  0
    6.3333    2.4122   -7.2853 C   0  0  0  0  0  4           0  0  0
    6.9600    2.4122   -8.6780 C   0  0  0  0  0  4           0  0  0
    6.5620    3.6269   -9.5024 C   0  0  0  0  0  4           0  0  0
  1 19  1  0     0  0
  2 19  1  0     0  0
  3 19  1  0     0  0
  4 20  2  0     0  0
  5 21  2  0     0  0
  6 22  2  0     0  0
  7  8  1  0     0  0
  7 10  1  0     0  0
  8 11  2  0     0  0
  9 12  1  0     0  0
  9 20  1  0     0  0
  9 21  1  0     0  0
 10 13  2  0     0  0
 10 20  1  0     0  0
 11 13  1  0     0  0
 11 22  1  0     0  0
 12 14  1  0     0  0
 12 15  2  0     0  0
 13 21  1  0     0  0
 14 16  2  0     0  0
 14 19  1  0     0  0
 15 17  1  0     0  0
 16 18  1  0     0  0
 17 18  2  0     0  0
 22 23  1  0     0  0
 23 24  1  0     0  0
 24 25  1  0     0  0
 25 26  1  0     0  0
 26 27  1  0     0  0
 27 28  1  0     0  0
 28 29  1  0     0  0
 29 30  1  0     0  0
 30 31  1  0     0  0
 31 32  1  0     0  0
 32 33  1  0     0  0
 33 34  1  0     0  0
 34 35  1  0     0  0
 35 36  1  0     0  0
 36 37  1  0     0  0
 37 38  1  0     0  0
 38 39  1  0     0  0
M  END
> <standard_type>
IC50

> <# Confs.>
25

> <canonical_smiles>
O=C1C2=C(C(C(CCCCCCCCCCCCCCCCC)=O)=NN2)C(N1C3=CC=CC=C3C(F)(F)F)=O

> <standard_relation>
=

> <predicted_activity_value>
6.3979400086720375

> <actual_activity_value>
6.494850021680094

> <Compound>
3

> <publication_ID>
nan

> <standard_units>
nM

> hash
9721077515220394765

$$$$
3_
XXILIB    08252103493D 0   0.00000     0.00000

 39 41  0     1  0            999 V2000
  -11.2090   -2.0915    7.5142 F   0  0  0  0  0  1           0  0  0
  -12.9459   -3.1718    6.7890 F   0  0  0  0  0  1           0  0  0
  -13.0705   -2.0307    8.6354 F   0  0  0  0  0  1           0  0  0
  -10.4329    0.2057    8.5706 O   0  0  0  0  0  2           0  0  0
  -10.0418    0.0822    3.8847 O   0  0  0  0  0  2           0  0  0
   -7.0670   -0.0000    3.0959 O   0  0  0  0  0  2           0  0  0
   -7.4063    0.0815    7.5538 N   0  0  0  0  0  3           0  0  0
   -6.4478    0.0376    6.5947 N   0  0  0  0  0  3           0  0  0
  -10.6940    0.1509    6.1915 N   0  0  1  0  0  3           0  0  0
   -8.6444    0.1112    7.0263 C   0  0  0  0  0  4           0  0  0
   -7.1309    0.0375    5.4281 C   0  0  0  0  0  4           0  0  0
  -12.1194    0.1844    6.0718 C   0  0  0  0  0  4           0  0  0
   -8.5073    0.0793    5.6746 C   0  0  0  0  0  4           0  0  0
  -12.9954   -0.7932    6.6097 C   0  0  0  0  0  4           0  0  0
  -12.6921    1.2713    5.3695 C   0  0  0  0  0  4           0  0  0
  -14.3874   -0.6365    6.4260 C   0  0  0  0  0  4           0  0  0
  -14.0711    1.4029    5.2035 C   0  0  0  0  0  4           0  0  0
  -14.9207    0.4475    5.7333 C   0  0  0  0  0  4           0  0  0
  -12.5612   -2.0025    7.3729 C   0  0  1  0  0  4           0  0  0
  -10.0098    0.1620    7.4270 C   0  0  0  0  0  4           0  0  0
   -9.8160    0.1028    5.0833 C   0  0  0  0  0  4           0  0  0
   -6.4443   -0.0000    4.1549 C   0  0  0  0  0  4           0  0  0
   -4.9348   -0.0000    4.1786 C   0  0  0  0  0  4           0  0  0
   -4.3078   -0.0000    2.7854 C   0  0  0  0  0  4           0  0  0
   -2.7806   -0.0000    2.7854 C   0  0  0  0  0  4           0  0  0
   -2.1539   -0.0000    1.3927 C   0  0  0  0  0  4           0  0  0
   -0.6267    0.0000    1.3927 C   0  0  0  0  0  4           0  0  0
    0.0000   -0.0000    0.0000 C   0  0  0  0  0  4           0  0  0
    1.5278   -0.0000   -0.0000 C   0  0  0  0  0  4           0  0  0
    2.1545    0.0000   -1.3927 C   0  0  0  0  0  4           0  0  0
    3.6817    0.0000   -1.3927 C   0  0  0  0  0  4           0  0  0
    4.3084    0.0000   -2.7854 C   0  0  0  0  0  4           0  0  0
    5.8356    0.0000   -2.7854 C   0  0  0  0  0  4           0  0  0
    6.4623    0.0000   -4.1781 C   0  0  0  0  0  4           0  0  0
    7.9895    0.0000   -4.1781 C   0  0  0  0  0  4           0  0  0
    8.6162   -1.2061   -3.4817 C   0  0  0  0  0  4           0  0  0
   10.1434   -1.2061   -3.4817 C   0  0  0  0  0  4           0  0  0
   10.7701   -2.4122   -2.7854 C   0  0  0  0  0  4           0  0  0
   12.2907   -2.3785   -2.8049 C   0  0  0  0  0  4           0  0  0
  1 19  1  0     0  0
  2 19  1  0     0  0
  3 19  1  0     0  0
  4 20  2  0     0  0
  5 21  2  0     0  0
  6 22  2  0     0  0
  7  8  1  0     0  0
  7 10  1  0     0  0
  8 11  2  0     0  0
  9 12  1  0     0  0
  9 20  1  0     0  0
  9 21  1  0     0  0
 10 13  2  0     0  0
 10 20  1  0     0  0
 11 13  1  0     0  0
 11 22  1  0     0  0
 12 14  1  0     0  0
 12 15  2  0     0  0
 13 21  1  0     0  0
 14 16  2  0     0  0
 14 19  1  0     0  0
 15 17  1  0     0  0
 16 18  1  0     0  0
 17 18  2  0     0  0
 22 23  1  0     0  0
 23 24  1  0     0  0
 24 25  1  0     0  0
 25 26  1  0     0  0
 26 27  1  0     0  0
 27 28  1  0     0  0
 28 29  1  0     0  0
 29 30  1  0     0  0
 30 31  1  0     0  0
 31 32  1  0     0  0
 32 33  1  0     0  0
 33 34  1  0     0  0
 34 35  1  0     0  0
 35 36  1  0     0  0
 36 37  1  0     0  0
 37 38  1  0     0  0
 38 39  1  0     0  0
M  END
> <standard_type>
IC50

> <# Confs.>
25

> <canonical_smiles>
O=C1C2=C(C(C(CCCCCCCCCCCCCCCCC)=O)=NN2)C(N1C3=CC=CC=C3C(F)(F)F)=O

> <standard_relation>
=

> <predicted_activity_value>
6.3979400086720375

> <actual_activity_value>
6.494850021680094

> <Compound>
3

> <publication_ID>
nan

> <standard_units>
nM

> hash
9721077515220394765

$$$$
3_
XXILIB    08252103493D 0   0.00000     0.00000

 39 41  0     1  0            999 V2000
  -11.2090   -2.0915    7.5142 F   0  0  0  0  0  1           0  0  0
  -12.9459   -3.1718    6.7890 F   0  0  0  0  0  1           0  0  0
  -13.0705   -2.0307    8.6354 F   0  0  0  0  0  1           0  0  0
  -10.4329    0.2057    8.5706 O   0  0  0  0  0  2           0  0  0
  -10.0418    0.0822    3.8847 O   0  0  0  0  0  2           0  0  0
   -7.0670   -0.0000    3.0959 O   0  0  0  0  0  2           0  0  0
   -7.4063    0.0815    7.5538 N   0  0  0  0  0  3           0  0  0
   -6.4478    0.0376    6.5947 N   0  0  0  0  0  3           0  0  0
  -10.6940    0.1509    6.1915 N   0  0  1  0  0  3           0  0  0
   -8.6444    0.1112    7.0263 C   0  0  0  0  0  4           0  0  0
   -7.1309    0.0375    5.4281 C   0  0  0  0  0  4           0  0  0
  -12.1194    0.1844    6.0718 C   0  0  0  0  0  4           0  0  0
   -8.5073    0.0793    5.6746 C   0  0  0  0  0  4           0  0  0
  -12.9954   -0.7932    6.6097 C   0  0  0  0  0  4           0  0  0
  -12.6921    1.2713    5.3695 C   0  0  0  0  0  4           0  0  0
  -14.3874   -0.6365    6.4260 C   0  0  0  0  0  4           0  0  0
  -14.0711    1.4029    5.2035 C   0  0  0  0  0  4           0  0  0
  -14.9207    0.4475    5.7333 C   0  0  0  0  0  4           0  0  0
  -12.5612   -2.0025    7.3729 C   0  0  1  0  0  4           0  0  0
  -10.0098    0.1620    7.4270 C   0  0  0  0  0  4           0  0  0
   -9.8160    0.1028    5.0833 C   0  0  0  0  0  4           0  0  0
   -6.4443   -0.0000    4.1549 C   0  0  0  0  0  4           0  0  0
   -4.9348   -0.0000    4.1786 C   0  0  0  0  0  4           0  0  0
   -4.3078   -0.0000    2.7854 C   0  0  0  0  0  4           0  0  0
   -2.7806   -0.0000    2.7854 C   0  0  0  0  0  4           0  0  0
   -2.1539   -0.0000    1.3927 C   0  0  0  0  0  4           0  0  0
   -0.6267    0.0000    1.3927 C   0  0  0  0  0  4           0  0  0
    0.0000   -0.0000    0.0000 C   0  0  0  0  0  4           0  0  0
    1.5278   -0.0000   -0.0000 C   0  0  0  0  0  4           0  0  0
    2.1545    0.0000   -1.3927 C   0  0  0  0  0  4           0  0  0
    3.6817    0.0000   -1.3927 C   0  0  0  0  0  4           0  0  0
    4.3084    0.0000   -2.7854 C   0  0  0  0  0  4           0  0  0
    5.8356    0.0000   -2.7854 C   0  0  0  0  0  4           0  0  0
    6.4623    0.0000   -4.1781 C   0  0  0  0  0  4           0  0  0
    7.9895    0.0000   -4.1781 C   0  0  0  0  0  4           0  0  0
    8.6162    0.0000   -5.5707 C   0  0  0  0  0  4           0  0  0
    8.2384    1.2061   -6.4280 C   0  0  0  0  0  4           0  0  0
    8.8651    1.2061   -7.8207 C   0  0  0  0  0  4           0  0  0
    8.4670    2.4208   -8.6451 C   0  0  0  0  0  4           0  0  0
  1 19  1  0     0  0
  2 19  1  0     0  0
  3 19  1  0     0  0
  4 20  2  0     0  0
  5 21  2  0     0  0
  6 22  2  0     0  0
  7  8  1  0     0  0
  7 10  1  0     0  0
  8 11  2  0     0  0
  9 12  1  0     0  0
  9 20  1  0     0  0
  9 21  1  0     0  0
 10 13  2  0     0  0
 10 20  1  0     0  0
 11 13  1  0     0  0
 11 22  1  0     0  0
 12 14  1  0     0  0
 12 15  2  0     0  0
 13 21  1  0     0  0
 14 16  2  0     0  0
 14 19  1  0     0  0
 15 17  1  0     0  0
 16 18  1  0     0  0
 17 18  2  0     0  0
 22 23  1  0     0  0
 23 24  1  0     0  0
 24 25  1  0     0  0
 25 26  1  0     0  0
 26 27  1  0     0  0
 27 28  1  0     0  0
 28 29  1  0     0  0
 29 30  1  0     0  0
 30 31  1  0     0  0
 31 32  1  0     0  0
 32 33  1  0     0  0
 33 34  1  0     0  0
 34 35  1  0     0  0
 35 36  1  0     0  0
 36 37  1  0     0  0
 37 38  1  0     0  0
 38 39  1  0     0  0
M  END
> <standard_type>
IC50

> <# Confs.>
25

> <canonical_smiles>
O=C1C2=C(C(C(CCCCCCCCCCCCCCCCC)=O)=NN2)C(N1C3=CC=CC=C3C(F)(F)F)=O

> <standard_relation>
=

> <predicted_activity_value>
6.3979400086720375

> <actual_activity_value>
6.494850021680094

> <Compound>
3

> <publication_ID>
nan

> <standard_units>
nM

> hash
9721077515220394765

$$$$
3_
XXILIB    08252103493D 0   0.00000     0.00000

 39 41  0     1  0            999 V2000
  -11.0950   -5.2550    2.5953 F   0  0  0  0  0  1           0  0  0
  -12.9581   -6.2659    2.1298 F   0  0  0  0  0  1           0  0  0
  -12.7704   -5.1321    3.9753 F   0  0  0  0  0  1           0  0  0
  -10.4329   -5.1130    0.0709 O   0  0  0  0  0  2           0  0  0
  -10.0418   -0.9932    2.3069 O   0  0  0  0  0  2           0  0  0
   -7.0670   -0.2689    2.6301 O   0  0  0  0  0  2           0  0  0
   -7.4063   -4.1704    0.4718 N   0  0  0  0  0  3           0  0  0
   -6.4478   -3.3178    0.9132 N   0  0  0  0  0  3           0  0  0
  -10.6940   -3.0252    1.2130 N   0  0  1  0  0  3           0  0  0
   -8.6444   -3.7283    0.7612 C   0  0  0  0  0  4           0  0  0
   -7.1309   -2.3074    1.4965 C   0  0  0  0  0  4           0  0  0
  -12.1194   -2.9384    1.3019 C   0  0  0  0  0  4           0  0  0
   -8.5073   -2.5418    1.4094 C   0  0  0  0  0  4           0  0  0
  -12.9440   -3.8861    1.9608 C   0  0  0  0  0  4           0  0  0
  -12.7469   -1.8269    0.6909 C   0  0  0  0  0  4           0  0  0
  -14.3410   -3.6769    1.9815 C   0  0  0  0  0  4           0  0  0
  -14.1295   -1.6434    0.7272 C   0  0  0  0  0  4           0  0  0
  -14.9283   -2.5699    1.3743 C   0  0  0  0  0  4           0  0  0
  -12.4491   -5.1152    2.6522 C   0  0  1  0  0  4           0  0  0
  -10.0098   -4.1007    0.6049 C   0  0  0  0  0  4           0  0  0
   -9.8160   -2.0415    1.7254 C   0  0  0  0  0  4           0  0  0
   -6.4443   -1.1861    2.1006 C   0  0  0  0  0  4           0  0  0
   -4.9348   -1.2066    2.0888 C   0  0  0  0  0  4           0  0  0
   -4.3078    0.0000    2.7854 C   0  0  0  0  0  4           0  0  0
   -2.7806    0.0000    2.7854 C   0  0  0  0  0  4           0  0  0
   -2.1539    0.0000    1.3927 C   0  0  0  0  0  4           0  0  0
   -0.6267    0.0000    1.3927 C   0  0  0  0  0  4           0  0  0
    0.0000    0.0000    0.0000 C   0  0  0  0  0  4           0  0  0
    1.5278   -0.0000   -0.0000 C   0  0  0  0  0  4           0  0  0
    2.1545    0.0000   -1.3927 C   0  0  0  0  0  4           0  0  0
    3.6817    0.0000   -1.3927 C   0  0  0  0  0  4           0  0  0
    4.3084    0.0000   -2.7854 C   0  0  0  0  0  4           0  0  0
    5.8356    0.0000   -2.7854 C   0  0  0  0  0  4           0  0  0
    6.4623    0.0000   -4.1781 C   0  0  0  0  0  4           0  0  0
    7.9895    0.0000   -4.1781 C   0  0  0  0  0  4           0  0  0
    8.6162    0.0000   -5.5707 C   0  0  0  0  0  4           0  0  0
   10.1434    0.0000   -5.5707 C   0  0  0  0  0  4           0  0  0
   10.7701    0.0000   -6.9634 C   0  0  0  0  0  4           0  0  0
   12.2907    0.0000   -6.9245 C   0  0  0  0  0  4           0  0  0
  1 19  1  0     0  0
  2 19  1  0     0  0
  3 19  1  0     0  0
  4 20  2  0     0  0
  5 21  2  0     0  0
  6 22  2  0     0  0
  7  8  1  0     0  0
  7 10  1  0     0  0
  8 11  2  0     0  0
  9 12  1  0     0  0
  9 20  1  0     0  0
  9 21  1  0     0  0
 10 13  2  0     0  0
 10 20  1  0     0  0
 11 13  1  0     0  0
 11 22  1  0     0  0
 12 14  1  0     0  0
 12 15  2  0     0  0
 13 21  1  0     0  0
 14 16  2  0     0  0
 14 19  1  0     0  0
 15 17  1  0     0  0
 16 18  1  0     0  0
 17 18  2  0     0  0
 22 23  1  0     0  0
 23 24  1  0     0  0
 24 25  1  0     0  0
 25 26  1  0     0  0
 26 27  1  0     0  0
 27 28  1  0     0  0
 28 29  1  0     0  0
 29 30  1  0     0  0
 30 31  1  0     0  0
 31 32  1  0     0  0
 32 33  1  0     0  0
 33 34  1  0     0  0
 34 35  1  0     0  0
 35 36  1  0     0  0
 36 37  1  0     0  0
 37 38  1  0     0  0
 38 39  1  0     0  0
M  END
> <standard_type>
IC50

> <# Confs.>
25

> <canonical_smiles>
O=C1C2=C(C(C(CCCCCCCCCCCCCCCCC)=O)=NN2)C(N1C3=CC=CC=C3C(F)(F)F)=O

> <standard_relation>
=

> <predicted_activity_value>
6.3979400086720375

> <actual_activity_value>
6.494850021680094

> <Compound>
3

> <publication_ID>
nan

> <standard_units>
nM

> hash
9721077515220394765

$$$$
3_
XXILIB    08252103493D 0   0.00000     0.00000

 39 41  0     1  0            999 V2000
   -7.2184   -5.9467    7.9586 F   0  0  0  0  0  1           0  0  0
   -6.8216   -6.6173    9.9841 F   0  0  0  0  0  1           0  0  0
   -7.6207   -8.0088    8.5170 F   0  0  0  0  0  1           0  0  0
   -6.9656   -6.6264    5.4150 O   0  0  0  0  0  2           0  0  0
   -3.4108   -3.9857    7.0012 O   0  0  0  0  0  2           0  0  0
   -3.5557   -1.1843    5.7324 O   0  0  0  0  0  2           0  0  0
   -6.9656   -3.6579    4.2328 N   0  0  0  0  0  3           0  0  0
   -6.4626   -2.4056    4.0938 N   0  0  0  0  0  3           0  0  0
   -5.0443   -5.6575    6.4644 N   0  0  1  0  0  3           0  0  0
   -6.2287   -4.4050    5.0758 C   0  0  0  0  0  4           0  0  0
   -5.3702   -2.3854    4.8900 C   0  0  0  0  0  4           0  0  0
   -4.5832   -6.7551    7.2579 C   0  0  0  0  0  4           0  0  0
   -5.2070   -3.6251    5.5173 C   0  0  0  0  0  4           0  0  0
   -5.3414   -7.3854    8.2778 C   0  0  0  0  0  4           0  0  0
   -3.2804   -7.2454    7.0032 C   0  0  0  0  0  4           0  0  0
   -4.7690   -8.4673    8.9833 C   0  0  0  0  0  4           0  0  0
   -2.7392   -8.3169    7.7141 C   0  0  0  0  0  4           0  0  0
   -3.4851   -8.9296    8.7058 C   0  0  0  0  0  4           0  0  0
   -6.7271   -6.9941    8.6783 C   0  0  1  0  0  4           0  0  0
   -6.1855   -5.7141    5.6342 C   0  0  0  0  0  4           0  0  0
   -4.4056   -4.3957    6.4266 C   0  0  0  0  0  4           0  0  0
   -4.5480   -1.2005    5.0082 C   0  0  0  0  0  4           0  0  0
   -4.9348   -0.0000    4.1786 C   0  0  0  0  0  4           0  0  0
   -4.3078   -0.0000    2.7854 C   0  0  0  0  0  4           0  0  0
   -2.7806   -0.0000    2.7854 C   0  0  0  0  0  4           0  0  0
   -2.1539   -0.0000    1.3927 C   0  0  0  0  0  4           0  0  0
   -0.6267    0.0000    1.3927 C   0  0  0  0  0  4           0  0  0
    0.0000    0.0000    0.0000 C   0  0  0  0  0  4           0  0  0
    1.5278   -0.0000   -0.0000 C   0  0  0  0  0  4           0  0  0
    2.1545    0.0000   -1.3927 C   0  0  0  0  0  4           0  0  0
    3.6817    0.0000   -1.3927 C   0  0  0  0  0  4           0  0  0
    4.3084    0.0000   -2.7854 C   0  0  0  0  0  4           0  0  0
    5.8356    0.0000   -2.7854 C   0  0  0  0  0  4           0  0  0
    6.4623    0.0000   -4.1781 C   0  0  0  0  0  4           0  0  0
    7.9895    0.0000   -4.1781 C   0  0  0  0  0  4           0  0  0
    8.6162    0.0000   -5.5707 C   0  0  0  0  0  4           0  0  0
   10.1434    0.0000   -5.5707 C   0  0  0  0  0  4           0  0  0
   10.7701    0.0000   -6.9634 C   0  0  0  0  0  4           0  0  0
   12.2907    0.0000   -6.9245 C   0  0  0  0  0  4           0  0  0
  1 19  1  0     0  0
  2 19  1  0     0  0
  3 19  1  0     0  0
  4 20  2  0     0  0
  5 21  2  0     0  0
  6 22  2  0     0  0
  7  8  1  0     0  0
  7 10  1  0     0  0
  8 11  2  0     0  0
  9 12  1  0     0  0
  9 20  1  0     0  0
  9 21  1  0     0  0
 10 13  2  0     0  0
 10 20  1  0     0  0
 11 13  1  0     0  0
 11 22  1  0     0  0
 12 14  1  0     0  0
 12 15  2  0     0  0
 13 21  1  0     0  0
 14 16  2  0     0  0
 14 19  1  0     0  0
 15 17  1  0     0  0
 16 18  1  0     0  0
 17 18  2  0     0  0
 22 23  1  0     0  0
 23 24  1  0     0  0
 24 25  1  0     0  0
 25 26  1  0     0  0
 26 27  1  0     0  0
 27 28  1  0     0  0
 28 29  1  0     0  0
 29 30  1  0     0  0
 30 31  1  0     0  0
 31 32  1  0     0  0
 32 33  1  0     0  0
 33 34  1  0     0  0
 34 35  1  0     0  0
 35 36  1  0     0  0
 36 37  1  0     0  0
 37 38  1  0     0  0
 38 39  1  0     0  0
M  END
> <standard_type>
IC50

> <# Confs.>
25

> <canonical_smiles>
O=C1C2=C(C(C(CCCCCCCCCCCCCCCCC)=O)=NN2)C(N1C3=CC=CC=C3C(F)(F)F)=O

> <standard_relation>
=

> <predicted_activity_value>
6.3979400086720375

> <actual_activity_value>
6.494850021680094

> <Compound>
3

> <publication_ID>
nan

> <standard_units>
nM

> hash
9721077515220394765

$$$$
3_
XXILIB    08252103493D 0   0.00000     0.00000

 39 41  0     1  0            999 V2000
   -1.6980   -3.9300   11.7941 F   0  0  0  0  0  1           0  0  0
   -0.0081   -5.0193   12.6110 F   0  0  0  0  0  1           0  0  0
   -1.9149   -5.0321   13.6554 F   0  0  0  0  0  1           0  0  0
   -4.2973   -4.0903   11.3316 O   0  0  0  0  0  2           0  0  0
   -1.6661   -5.3849    7.6538 O   0  0  0  0  0  2           0  0  0
   -1.8944   -3.2748    5.4235 O   0  0  0  0  0  2           0  0  0
   -4.3772   -1.9993    8.9169 N   0  0  0  0  0  3           0  0  0
   -4.0413   -1.5612    7.6777 N   0  0  0  0  0  3           0  0  0
   -2.8539   -5.1146    9.7195 N   0  0  1  0  0  3           0  0  0
   -3.7982   -3.1793    9.2071 C   0  0  0  0  0  4           0  0  0
   -3.2174   -2.5152    7.1892 C   0  0  0  0  0  4           0  0  0
   -2.4606   -6.2996   10.4183 C   0  0  0  0  0  4           0  0  0
   -3.0482   -3.5355    8.1311 C   0  0  0  0  0  4           0  0  0
   -1.7737   -6.3114   11.6594 C   0  0  0  0  0  4           0  0  0
   -2.7830   -7.5449    9.8286 C   0  0  0  0  0  4           0  0  0
   -1.4500   -7.5544   12.2478 C   0  0  0  0  0  4           0  0  0
   -2.4527   -8.7587   10.4318 C   0  0  0  0  0  4           0  0  0
   -1.7853   -8.7637   11.6442 C   0  0  0  0  0  4           0  0  0
   -1.3545   -5.0926   12.4159 C   0  0  1  0  0  4           0  0  0
   -3.7255   -4.1407   10.2549 C   0  0  0  0  0  4           0  0  0
   -2.4111   -4.7909    8.4155 C   0  0  0  0  0  4           0  0  0
   -2.6430   -2.4066    5.8655 C   0  0  0  0  0  4           0  0  0
   -3.0297   -1.2061    5.0359 C   0  0  0  0  0  4           0  0  0
   -2.4028   -1.2061    3.6426 C   0  0  0  0  0  4           0  0  0
   -2.7806   -0.0000    2.7854 C   0  0  0  0  0  4           0  0  0
   -2.1539   -0.0000    1.3927 C   0  0  0  0  0  4           0  0  0
   -0.6267    0.0000    1.3927 C   0  0  0  0  0  4           0  0  0
    0.0000    0.0000    0.0000 C   0  0  0  0  0  4           0  0  0
    1.5278   -0.0000   -0.0000 C   0  0  0  0  0  4           0  0  0
    2.1545    0.0000   -1.3927 C   0  0  0  0  0  4           0  0  0
    3.6817    0.0000   -1.3927 C   0  0  0  0  0  4           0  0  0
    4.3084    0.0000   -2.7854 C   0  0  0  0  0  4           0  0  0
    5.8356    0.0000   -2.7854 C   0  0  0  0  0  4           0  0  0
    6.4623    0.0000   -4.1781 C   0  0  0  0  0  4           0  0  0
    7.9895    0.0000   -4.1781 C   0  0  0  0  0  4           0  0  0
    8.6162    0.0000   -5.5707 C   0  0  0  0  0  4           0  0  0
   10.1434    0.0000   -5.5707 C   0  0  0  0  0  4           0  0  0
   10.7701    0.0000   -6.9634 C   0  0  0  0  0  4           0  0  0
   12.2907    0.0000   -6.9245 C   0  0  0  0  0  4           0  0  0
  1 19  1  0     0  0
  2 19  1  0     0  0
  3 19  1  0     0  0
  4 20  2  0     0  0
  5 21  2  0     0  0
  6 22  2  0     0  0
  7  8  1  0     0  0
  7 10  1  0     0  0
  8 11  2  0     0  0
  9 12  1  0     0  0
  9 20  1  0     0  0
  9 21  1  0     0  0
 10 13  2  0     0  0
 10 20  1  0     0  0
 11 13  1  0     0  0
 11 22  1  0     0  0
 12 14  1  0     0  0
 12 15  2  0     0  0
 13 21  1  0     0  0
 14 16  2  0     0  0
 14 19  1  0     0  0
 15 17  1  0     0  0
 16 18  1  0     0  0
 17 18  2  0     0  0
 22 23  1  0     0  0
 23 24  1  0     0  0
 24 25  1  0     0  0
 25 26  1  0     0  0
 26 27  1  0     0  0
 27 28  1  0     0  0
 28 29  1  0     0  0
 29 30  1  0     0  0
 30 31  1  0     0  0
 31 32  1  0     0  0
 32 33  1  0     0  0
 33 34  1  0     0  0
 34 35  1  0     0  0
 35 36  1  0     0  0
 36 37  1  0     0  0
 37 38  1  0     0  0
 38 39  1  0     0  0
M  END
> <standard_type>
IC50

> <# Confs.>
25

> <canonical_smiles>
O=C1C2=C(C(C(CCCCCCCCCCCCCCCCC)=O)=NN2)C(N1C3=CC=CC=C3C(F)(F)F)=O

> <standard_relation>
=

> <predicted_activity_value>
6.3979400086720375

> <actual_activity_value>
6.494850021680094

> <Compound>
3

> <publication_ID>
nan

> <standard_units>
nM

> hash
9721077515220394765

$$$$
3_
XXILIB    08252103493D 0   0.00000     0.00000

 39 41  0     1  0            999 V2000
   -1.6293   -2.5221   10.3088 F   0  0  0  0  0  1           0  0  0
   -0.0803   -4.0114   10.6126 F   0  0  0  0  0  1           0  0  0
   -1.3166   -3.3749   12.2839 F   0  0  0  0  0  1           0  0  0
   -4.1354   -1.9214   10.9040 O   0  0  0  0  0  2           0  0  0
   -3.6858   -4.2029    6.8152 O   0  0  0  0  0  2           0  0  0
   -4.2921   -2.2828    4.4861 O   0  0  0  0  0  2           0  0  0
   -4.6935   -0.0772    8.3551 N   0  0  0  0  0  3           0  0  0
   -4.8074    0.1517    7.0228 N   0  0  0  0  0  3           0  0  0
   -3.7977   -3.4434    9.0871 N   0  0  1  0  0  3           0  0  0
   -4.3582   -1.3539    8.6191 C   0  0  0  0  0  4           0  0  0
   -4.5261   -1.0382    6.4460 C   0  0  0  0  0  4           0  0  0
   -3.4558   -4.6402    9.7927 C   0  0  0  0  0  4           0  0  0
   -4.2383   -1.9939    7.4262 C   0  0  0  0  0  4           0  0  0
   -2.3409   -4.7727   10.6599 C   0  0  0  0  0  4           0  0  0
   -4.2916   -5.7678    9.6127 C   0  0  0  0  0  4           0  0  0
   -2.1203   -6.0113   11.3025 C   0  0  0  0  0  4           0  0  0
   -4.0518   -6.9797   10.2609 C   0  0  0  0  0  4           0  0  0
   -2.9642   -7.1017   11.1081 C   0  0  0  0  0  4           0  0  0
   -1.3575   -3.6879   10.9594 C   0  0  1  0  0  4           0  0  0
   -4.0961   -2.2170    9.7208 C   0  0  0  0  0  4           0  0  0
   -3.8732   -3.3601    7.6769 C   0  0  0  0  0  4           0  0  0
   -4.5480   -1.2005    5.0082 C   0  0  0  0  0  4           0  0  0
   -4.9348   -0.0000    4.1786 C   0  0  0  0  0  4           0  0  0
   -4.3078   -0.0000    2.7854 C   0  0  0  0  0  4           0  0  0
   -2.7806   -0.0000    2.7854 C   0  0  0  0  0  4           0  0  0
   -2.1539   -0.0000    1.3927 C   0  0  0  0  0  4           0  0  0
   -0.6267    0.0000    1.3927 C   0  0  0  0  0  4           0  0  0
    0.0000    0.0000    0.0000 C   0  0  0  0  0  4           0  0  0
    1.5278   -0.0000   -0.0000 C   0  0  0  0  0  4           0  0  0
    2.1545    0.0000   -1.3927 C   0  0  0  0  0  4           0  0  0
    3.6817    0.0000   -1.3927 C   0  0  0  0  0  4           0  0  0
    4.3084    0.0000   -2.7854 C   0  0  0  0  0  4           0  0  0
    5.8356    0.0000   -2.7854 C   0  0  0  0  0  4           0  0  0
    6.4623    0.0000   -4.1781 C   0  0  0  0  0  4           0  0  0
    7.9895    0.0000   -4.1781 C   0  0  0  0  0  4           0  0  0
    8.6162    0.0000   -5.5707 C   0  0  0  0  0  4           0  0  0
   10.1434    0.0000   -5.5707 C   0  0  0  0  0  4           0  0  0
   10.7701    0.0000   -6.9634 C   0  0  0  0  0  4           0  0  0
   12.2907    0.0000   -6.9245 C   0  0  0  0  0  4           0  0  0
  1 19  1  0     0  0
  2 19  1  0     0  0
  3 19  1  0     0  0
  4 20  2  0     0  0
  5 21  2  0     0  0
  6 22  2  0     0  0
  7  8  1  0     0  0
  7 10  1  0     0  0
  8 11  2  0     0  0
  9 12  1  0     0  0
  9 20  1  0     0  0
  9 21  1  0     0  0
 10 13  2  0     0  0
 10 20  1  0     0  0
 11 13  1  0     0  0
 11 22  1  0     0  0
 12 14  1  0     0  0
 12 15  2  0     0  0
 13 21  1  0     0  0
 14 16  2  0     0  0
 14 19  1  0     0  0
 15 17  1  0     0  0
 16 18  1  0     0  0
 17 18  2  0     0  0
 22 23  1  0     0  0
 23 24  1  0     0  0
 24 25  1  0     0  0
 25 26  1  0     0  0
 26 27  1  0     0  0
 27 28  1  0     0  0
 28 29  1  0     0  0
 29 30  1  0     0  0
 30 31  1  0     0  0
 31 32  1  0     0  0
 32 33  1  0     0  0
 33 34  1  0     0  0
 34 35  1  0     0  0
 35 36  1  0     0  0
 36 37  1  0     0  0
 37 38  1  0     0  0
 38 39  1  0     0  0
M  END
> <standard_type>
IC50

> <# Confs.>
25

> <canonical_smiles>
O=C1C2=C(C(C(CCCCCCCCCCCCCCCCC)=O)=NN2)C(N1C3=CC=CC=C3C(F)(F)F)=O

> <standard_relation>
=

> <predicted_activity_value>
6.3979400086720375

> <actual_activity_value>
6.494850021680094

> <Compound>
3

> <publication_ID>
nan

> <standard_units>
nM

> hash
9721077515220394765

$$$$
3_
XXILIB    08252103493D 0   0.00000     0.00000

 39 41  0     1  0            999 V2000
  -11.2090   -2.0915    7.5142 F   0  0  0  0  0  1           0  0  0
  -12.9459   -3.1718    6.7890 F   0  0  0  0  0  1           0  0  0
  -13.0705   -2.0307    8.6354 F   0  0  0  0  0  1           0  0  0
  -10.4329    0.2057    8.5706 O   0  0  0  0  0  2           0  0  0
  -10.0418    0.0822    3.8847 O   0  0  0  0  0  2           0  0  0
   -7.0670   -0.0000    3.0959 O   0  0  0  0  0  2           0  0  0
   -7.4063    0.0815    7.5538 N   0  0  0  0  0  3           0  0  0
   -6.4478    0.0376    6.5947 N   0  0  0  0  0  3           0  0  0
  -10.6940    0.1509    6.1915 N   0  0  1  0  0  3           0  0  0
   -8.6444    0.1112    7.0263 C   0  0  0  0  0  4           0  0  0
   -7.1309    0.0375    5.4281 C   0  0  0  0  0  4           0  0  0
  -12.1194    0.1844    6.0718 C   0  0  0  0  0  4           0  0  0
   -8.5073    0.0793    5.6746 C   0  0  0  0  0  4           0  0  0
  -12.9954   -0.7932    6.6097 C   0  0  0  0  0  4           0  0  0
  -12.6921    1.2713    5.3695 C   0  0  0  0  0  4           0  0  0
  -14.3874   -0.6365    6.4260 C   0  0  0  0  0  4           0  0  0
  -14.0711    1.4029    5.2035 C   0  0  0  0  0  4           0  0  0
  -14.9207    0.4475    5.7333 C   0  0  0  0  0  4           0  0  0
  -12.5612   -2.0025    7.3729 C   0  0  1  0  0  4           0  0  0
  -10.0098    0.1620    7.4270 C   0  0  0  0  0  4           0  0  0
   -9.8160    0.1028    5.0833 C   0  0  0  0  0  4           0  0  0
   -6.4443   -0.0000    4.1549 C   0  0  0  0  0  4           0  0  0
   -4.9348   -0.0000    4.1786 C   0  0  0  0  0  4           0  0  0
   -4.3078   -0.0000    2.7854 C   0  0  0  0  0  4           0  0  0
   -2.7806   -0.0000    2.7854 C   0  0  0  0  0  4           0  0  0
   -2.1539   -0.0000    1.3927 C   0  0  0  0  0  4           0  0  0
   -0.6267    0.0000    1.3927 C   0  0  0  0  0  4           0  0  0
    0.0000   -0.0000    0.0000 C   0  0  0  0  0  4           0  0  0
    1.5278    0.0000   -0.0000 C   0  0  0  0  0  4           0  0  0
    2.1545    1.2061    0.6963 C   0  0  0  0  0  4           0  0  0
    3.6817    1.2061    0.6963 C   0  0  0  0  0  4           0  0  0
    4.3084    2.4122    1.3927 C   0  0  0  0  0  4           0  0  0
    5.8356    2.4122    1.3927 C   0  0  0  0  0  4           0  0  0
    6.4623    3.6183    2.0890 C   0  0  0  0  0  4           0  0  0
    7.9895    3.6183    2.0890 C   0  0  0  0  0  4           0  0  0
    8.6162    4.8244    2.7854 C   0  0  0  0  0  4           0  0  0
   10.1434    4.8244    2.7854 C   0  0  0  0  0  4           0  0  0
   10.7701    6.0305    3.4817 C   0  0  0  0  0  4           0  0  0
   12.2907    5.9968    3.4622 C   0  0  0  0  0  4           0  0  0
  1 19  1  0     0  0
  2 19  1  0     0  0
  3 19  1  0     0  0
  4 20  2  0     0  0
  5 21  2  0     0  0
  6 22  2  0     0  0
  7  8  1  0     0  0
  7 10  1  0     0  0
  8 11  2  0     0  0
  9 12  1  0     0  0
  9 20  1  0     0  0
  9 21  1  0     0  0
 10 13  2  0     0  0
 10 20  1  0     0  0
 11 13  1  0     0  0
 11 22  1  0     0  0
 12 14  1  0     0  0
 12 15  2  0     0  0
 13 21  1  0     0  0
 14 16  2  0     0  0
 14 19  1  0     0  0
 15 17  1  0     0  0
 16 18  1  0     0  0
 17 18  2  0     0  0
 22 23  1  0     0  0
 23 24  1  0     0  0
 24 25  1  0     0  0
 25 26  1  0     0  0
 26 27  1  0     0  0
 27 28  1  0     0  0
 28 29  1  0     0  0
 29 30  1  0     0  0
 30 31  1  0     0  0
 31 32  1  0     0  0
 32 33  1  0     0  0
 33 34  1  0     0  0
 34 35  1  0     0  0
 35 36  1  0     0  0
 36 37  1  0     0  0
 37 38  1  0     0  0
 38 39  1  0     0  0
M  END
> <standard_type>
IC50

> <# Confs.>
25

> <canonical_smiles>
O=C1C2=C(C(C(CCCCCCCCCCCCCCCCC)=O)=NN2)C(N1C3=CC=CC=C3C(F)(F)F)=O

> <standard_relation>
=

> <predicted_activity_value>
6.3979400086720375

> <actual_activity_value>
6.494850021680094

> <Compound>
3

> <publication_ID>
nan

> <standard_units>
nM

> hash
9721077515220394765

$$$$
3_
XXILIB    08252103493D 0   0.00000     0.00000

 39 41  0     1  0            999 V2000
  -11.2090    6.3471    0.1432 F   0  0  0  0  0  1           0  0  0
  -12.9459    6.2592    1.4414 F   0  0  0  0  0  1           0  0  0
  -13.0705    7.2877   -0.4701 F   0  0  0  0  0  1           0  0  0
  -10.4329    6.1134   -2.3744 O   0  0  0  0  0  2           0  0  0
  -10.0418    2.1171    0.0755 O   0  0  0  0  0  2           0  0  0
   -7.0670    1.4750    0.5411 O   0  0  0  0  0  2           0  0  0
   -7.4063    5.2949   -1.7585 N   0  0  0  0  0  3           0  0  0
   -6.4478    4.4863   -1.2409 N   0  0  0  0  0  3           0  0  0
  -10.6940    4.0804   -1.1374 N   0  0  1  0  0  3           0  0  0
   -8.6444    4.8233   -1.5204 C   0  0  0  0  0  4           0  0  0
   -7.1309    3.4760   -0.6575 C   0  0  0  0  0  4           0  0  0
  -12.1194    3.9600   -1.1066 C   0  0  0  0  0  4           0  0  0
   -8.5073    3.6686   -0.8169 C   0  0  0  0  0  4           0  0  0
  -12.9954    4.9146   -0.5289 C   0  0  0  0  0  4           0  0  0
  -12.6921    2.8084   -1.6967 C   0  0  0  0  0  4           0  0  0
  -14.3874    4.6772   -0.5727 C   0  0  0  0  0  4           0  0  0
  -14.0711    2.5988   -1.7277 C   0  0  0  0  0  4           0  0  0
  -14.9207    3.5354   -1.1651 C   0  0  0  0  0  4           0  0  0
  -12.5612    6.1803    0.1368 C   0  0  1  0  0  4           0  0  0
  -10.0098    5.1448   -1.7647 C   0  0  0  0  0  4           0  0  0
   -9.8160    3.1448   -0.5416 C   0  0  0  0  0  4           0  0  0
   -6.4443    2.3922    0.0116 C   0  0  0  0  0  4           0  0  0
   -4.9348    2.4127   -0.0003 C   0  0  0  0  0  4           0  0  0
   -4.3078    1.2061    0.6963 C   0  0  0  0  0  4           0  0  0
   -2.7806    1.2061    0.6963 C   0  0  0  0  0  4           0  0  0
   -2.1539    0.0000    1.3927 C   0  0  0  0  0  4           0  0  0
   -0.6267    0.0000    1.3927 C   0  0  0  0  0  4           0  0  0
    0.0000    0.0000    0.0000 C   0  0  0  0  0  4           0  0  0
    1.5278   -0.0000   -0.0000 C   0  0  0  0  0  4           0  0  0
    2.1545    0.0000   -1.3927 C   0  0  0  0  0  4           0  0  0
    3.6817    0.0000   -1.3927 C   0  0  0  0  0  4           0  0  0
    4.3084    0.0000   -2.7854 C   0  0  0  0  0  4           0  0  0
    5.8356    0.0000   -2.7854 C   0  0  0  0  0  4           0  0  0
    6.4623    0.0000   -4.1781 C   0  0  0  0  0  4           0  0  0
    7.9895    0.0000   -4.1781 C   0  0  0  0  0  4           0  0  0
    8.6162    0.0000   -5.5707 C   0  0  0  0  0  4           0  0  0
   10.1434    0.0000   -5.5707 C   0  0  0  0  0  4           0  0  0
   10.7701    0.0000   -6.9634 C   0  0  0  0  0  4           0  0  0
   12.2907    0.0000   -6.9245 C   0  0  0  0  0  4           0  0  0
  1 19  1  0     0  0
  2 19  1  0     0  0
  3 19  1  0     0  0
  4 20  2  0     0  0
  5 21  2  0     0  0
  6 22  2  0     0  0
  7  8  1  0     0  0
  7 10  1  0     0  0
  8 11  2  0     0  0
  9 12  1  0     0  0
  9 20  1  0     0  0
  9 21  1  0     0  0
 10 13  2  0     0  0
 10 20  1  0     0  0
 11 13  1  0     0  0
 11 22  1  0     0  0
 12 14  1  0     0  0
 12 15  2  0     0  0
 13 21  1  0     0  0
 14 16  2  0     0  0
 14 19  1  0     0  0
 15 17  1  0     0  0
 16 18  1  0     0  0
 17 18  2  0     0  0
 22 23  1  0     0  0
 23 24  1  0     0  0
 24 25  1  0     0  0
 25 26  1  0     0  0
 26 27  1  0     0  0
 27 28  1  0     0  0
 28 29  1  0     0  0
 29 30  1  0     0  0
 30 31  1  0     0  0
 31 32  1  0     0  0
 32 33  1  0     0  0
 33 34  1  0     0  0
 34 35  1  0     0  0
 35 36  1  0     0  0
 36 37  1  0     0  0
 37 38  1  0     0  0
 38 39  1  0     0  0
M  END
> <standard_type>
IC50

> <# Confs.>
25

> <canonical_smiles>
O=C1C2=C(C(C(CCCCCCCCCCCCCCCCC)=O)=NN2)C(N1C3=CC=CC=C3C(F)(F)F)=O

> <standard_relation>
=

> <predicted_activity_value>
6.3979400086720375

> <actual_activity_value>
6.494850021680094

> <Compound>
3

> <publication_ID>
nan

> <standard_units>
nM

> hash
9721077515220394765

$$$$
3_
XXILIB    08252103493D 0   0.00000     0.00000

 39 41  0     1  0            999 V2000
    0.2070   -5.1361   12.6513 F   0  0  0  0  0  1           0  0  0
    1.8969   -6.2254   13.4682 F   0  0  0  0  0  1           0  0  0
   -0.0099   -6.2382   14.5127 F   0  0  0  0  0  1           0  0  0
   -2.3923   -5.2964   12.1889 O   0  0  0  0  0  2           0  0  0
    0.2389   -6.5910    8.5110 O   0  0  0  0  0  2           0  0  0
    0.0106   -4.4809    6.2807 O   0  0  0  0  0  2           0  0  0
   -2.4722   -3.2054    9.7742 N   0  0  0  0  0  3           0  0  0
   -2.1363   -2.7673    8.5349 N   0  0  0  0  0  3           0  0  0
   -0.9489   -6.3207   10.5768 N   0  0  1  0  0  3           0  0  0
   -1.8932   -4.3854   10.0643 C   0  0  0  0  0  4           0  0  0
   -1.3124   -3.7213    8.0464 C   0  0  0  0  0  4           0  0  0
   -0.5555   -7.5057   11.2755 C   0  0  0  0  0  4           0  0  0
   -1.1432   -4.7416    8.9884 C   0  0  0  0  0  4           0  0  0
    0.1313   -7.5175   12.5167 C   0  0  0  0  0  4           0  0  0
   -0.8780   -8.7510   10.6858 C   0  0  0  0  0  4           0  0  0
    0.4551   -8.7605   13.1050 C   0  0  0  0  0  4           0  0  0
   -0.5476   -9.9648   11.2890 C   0  0  0  0  0  4           0  0  0
    0.1198   -9.9698   12.5015 C   0  0  0  0  0  4           0  0  0
    0.5506   -6.2987   13.2732 C   0  0  1  0  0  4           0  0  0
   -1.8204   -5.3468   11.1122 C   0  0  0  0  0  4           0  0  0
   -0.5060   -5.9970    9.2728 C   0  0  0  0  0  4           0  0  0
   -0.7379   -3.6127    6.7228 C   0  0  0  0  0  4           0  0  0
   -1.1247   -2.4122    5.8931 C   0  0  0  0  0  4           0  0  0
   -0.4977   -2.4122    4.4999 C   0  0  0  0  0  4           0  0  0
   -0.8756   -1.2061    3.6426 C   0  0  0  0  0  4           0  0  0
   -0.2489   -1.2061    2.2499 C   0  0  0  0  0  4           0  0  0
   -0.6267    0.0000    1.3927 C   0  0  0  0  0  4           0  0  0
    0.0000    0.0000    0.0000 C   0  0  0  0  0  4           0  0  0
    1.5278   -0.0000   -0.0000 C   0  0  0  0  0  4           0  0  0
    2.1545    0.0000   -1.3927 C   0  0  0  0  0  4           0  0  0
    3.6817    0.0000   -1.3927 C   0  0  0  0  0  4           0  0  0
    4.3084    0.0000   -2.7854 C   0  0  0  0  0  4           0  0  0
    5.8356    0.0000   -2.7854 C   0  0  0  0  0  4           0  0  0
    6.4623    0.0000   -4.1781 C   0  0  0  0  0  4           0  0  0
    7.9895    0.0000   -4.1781 C   0  0  0  0  0  4           0  0  0
    8.6162    0.0000   -5.5707 C   0  0  0  0  0  4           0  0  0
   10.1434    0.0000   -5.5707 C   0  0  0  0  0  4           0  0  0
   10.7701    0.0000   -6.9634 C   0  0  0  0  0  4           0  0  0
   12.2907    0.0000   -6.9245 C   0  0  0  0  0  4           0  0  0
  1 19  1  0     0  0
  2 19  1  0     0  0
  3 19  1  0     0  0
  4 20  2  0     0  0
  5 21  2  0     0  0
  6 22  2  0     0  0
  7  8  1  0     0  0
  7 10  1  0     0  0
  8 11  2  0     0  0
  9 12  1  0     0  0
  9 20  1  0     0  0
  9 21  1  0     0  0
 10 13  2  0     0  0
 10 20  1  0     0  0
 11 13  1  0     0  0
 11 22  1  0     0  0
 12 14  1  0     0  0
 12 15  2  0     0  0
 13 21  1  0     0  0
 14 16  2  0     0  0
 14 19  1  0     0  0
 15 17  1  0     0  0
 16 18  1  0     0  0
 17 18  2  0     0  0
 22 23  1  0     0  0
 23 24  1  0     0  0
 24 25  1  0     0  0
 25 26  1  0     0  0
 26 27  1  0     0  0
 27 28  1  0     0  0
 28 29  1  0     0  0
 29 30  1  0     0  0
 30 31  1  0     0  0
 31 32  1  0     0  0
 32 33  1  0     0  0
 33 34  1  0     0  0
 34 35  1  0     0  0
 35 36  1  0     0  0
 36 37  1  0     0  0
 37 38  1  0     0  0
 38 39  1  0     0  0
M  END
> <standard_type>
IC50

> <# Confs.>
25

> <canonical_smiles>
O=C1C2=C(C(C(CCCCCCCCCCCCCCCCC)=O)=NN2)C(N1C3=CC=CC=C3C(F)(F)F)=O

> <standard_relation>
=

> <predicted_activity_value>
6.3979400086720375

> <actual_activity_value>
6.494850021680094

> <Compound>
3

> <publication_ID>
nan

> <standard_units>
nM

> hash
9721077515220394765

$$$$
3_
XXILIB    08252103493D 0   0.00000     0.00000

 39 41  0     1  0            999 V2000
  -11.2090   -2.0915    7.5142 F   0  0  0  0  0  1           0  0  0
  -12.9459   -3.1718    6.7890 F   0  0  0  0  0  1           0  0  0
  -13.0705   -2.0307    8.6354 F   0  0  0  0  0  1           0  0  0
  -10.4329    0.2057    8.5706 O   0  0  0  0  0  2           0  0  0
  -10.0418    0.0822    3.8847 O   0  0  0  0  0  2           0  0  0
   -7.0670   -0.0000    3.0959 O   0  0  0  0  0  2           0  0  0
   -7.4063    0.0815    7.5538 N   0  0  0  0  0  3           0  0  0
   -6.4478    0.0376    6.5947 N   0  0  0  0  0  3           0  0  0
  -10.6940    0.1509    6.1915 N   0  0  1  0  0  3           0  0  0
   -8.6444    0.1112    7.0263 C   0  0  0  0  0  4           0  0  0
   -7.1309    0.0375    5.4281 C   0  0  0  0  0  4           0  0  0
  -12.1194    0.1844    6.0718 C   0  0  0  0  0  4           0  0  0
   -8.5073    0.0793    5.6746 C   0  0  0  0  0  4           0  0  0
  -12.9954   -0.7932    6.6097 C   0  0  0  0  0  4           0  0  0
  -12.6921    1.2713    5.3695 C   0  0  0  0  0  4           0  0  0
  -14.3874   -0.6365    6.4260 C   0  0  0  0  0  4           0  0  0
  -14.0711    1.4029    5.2035 C   0  0  0  0  0  4           0  0  0
  -14.9207    0.4475    5.7333 C   0  0  0  0  0  4           0  0  0
  -12.5612   -2.0025    7.3729 C   0  0  1  0  0  4           0  0  0
  -10.0098    0.1620    7.4270 C   0  0  0  0  0  4           0  0  0
   -9.8160    0.1028    5.0833 C   0  0  0  0  0  4           0  0  0
   -6.4443   -0.0000    4.1549 C   0  0  0  0  0  4           0  0  0
   -4.9348   -0.0000    4.1786 C   0  0  0  0  0  4           0  0  0
   -4.3078   -0.0000    2.7854 C   0  0  0  0  0  4           0  0  0
   -2.7806   -0.0000    2.7854 C   0  0  0  0  0  4           0  0  0
   -2.1539   -0.0000    1.3927 C   0  0  0  0  0  4           0  0  0
   -0.6267    0.0000    1.3927 C   0  0  0  0  0  4           0  0  0
    0.0000   -0.0000    0.0000 C   0  0  0  0  0  4           0  0  0
    1.5278    0.0000    0.0000 C   0  0  0  0  0  4           0  0  0
    2.1545    0.0000   -1.3927 C   0  0  0  0  0  4           0  0  0
    1.7767   -1.2061   -2.2499 C   0  0  0  0  0  4           0  0  0
    2.4034   -1.2061   -3.6426 C   0  0  0  0  0  4           0  0  0
    2.0255   -2.4122   -4.4999 C   0  0  0  0  0  4           0  0  0
    2.6522   -2.4122   -5.8926 C   0  0  0  0  0  4           0  0  0
    2.2744   -3.6183   -6.7498 C   0  0  0  0  0  4           0  0  0
    2.9011   -3.6183   -8.1425 C   0  0  0  0  0  4           0  0  0
    2.5233   -4.8244   -8.9998 C   0  0  0  0  0  4           0  0  0
    3.1500   -4.8244  -10.3925 C   0  0  0  0  0  4           0  0  0
    2.7519   -6.0391  -11.2169 C   0  0  0  0  0  4           0  0  0
  1 19  1  0     0  0
  2 19  1  0     0  0
  3 19  1  0     0  0
  4 20  2  0     0  0
  5 21  2  0     0  0
  6 22  2  0     0  0
  7  8  1  0     0  0
  7 10  1  0     0  0
  8 11  2  0     0  0
  9 12  1  0     0  0
  9 20  1  0     0  0
  9 21  1  0     0  0
 10 13  2  0     0  0
 10 20  1  0     0  0
 11 13  1  0     0  0
 11 22  1  0     0  0
 12 14  1  0     0  0
 12 15  2  0     0  0
 13 21  1  0     0  0
 14 16  2  0     0  0
 14 19  1  0     0  0
 15 17  1  0     0  0
 16 18  1  0     0  0
 17 18  2  0     0  0
 22 23  1  0     0  0
 23 24  1  0     0  0
 24 25  1  0     0  0
 25 26  1  0     0  0
 26 27  1  0     0  0
 27 28  1  0     0  0
 28 29  1  0     0  0
 29 30  1  0     0  0
 30 31  1  0     0  0
 31 32  1  0     0  0
 32 33  1  0     0  0
 33 34  1  0     0  0
 34 35  1  0     0  0
 35 36  1  0     0  0
 36 37  1  0     0  0
 37 38  1  0     0  0
 38 39  1  0     0  0
M  END
> <standard_type>
IC50

> <# Confs.>
25

> <canonical_smiles>
O=C1C2=C(C(C(CCCCCCCCCCCCCCCCC)=O)=NN2)C(N1C3=CC=CC=C3C(F)(F)F)=O

> <standard_relation>
=

> <predicted_activity_value>
6.3979400086720375

> <actual_activity_value>
6.494850021680094

> <Compound>
3

> <publication_ID>
nan

> <standard_units>
nM

> hash
9721077515220394765

$$$$
3_
XXILIB    08252103493D 0   0.00000     0.00000

 39 41  0     1  0            999 V2000
  -11.2090   -2.0915    7.5142 F   0  0  0  0  0  1           0  0  0
  -12.9459   -3.1718    6.7890 F   0  0  0  0  0  1           0  0  0
  -13.0705   -2.0307    8.6354 F   0  0  0  0  0  1           0  0  0
  -10.4329    0.2057    8.5706 O   0  0  0  0  0  2           0  0  0
  -10.0418    0.0822    3.8847 O   0  0  0  0  0  2           0  0  0
   -7.0670   -0.0000    3.0959 O   0  0  0  0  0  2           0  0  0
   -7.4063    0.0815    7.5538 N   0  0  0  0  0  3           0  0  0
   -6.4478    0.0376    6.5947 N   0  0  0  0  0  3           0  0  0
  -10.6940    0.1509    6.1915 N   0  0  1  0  0  3           0  0  0
   -8.6444    0.1112    7.0263 C   0  0  0  0  0  4           0  0  0
   -7.1309    0.0375    5.4281 C   0  0  0  0  0  4           0  0  0
  -12.1194    0.1844    6.0718 C   0  0  0  0  0  4           0  0  0
   -8.5073    0.0793    5.6746 C   0  0  0  0  0  4           0  0  0
  -12.9954   -0.7932    6.6097 C   0  0  0  0  0  4           0  0  0
  -12.6921    1.2713    5.3695 C   0  0  0  0  0  4           0  0  0
  -14.3874   -0.6365    6.4260 C   0  0  0  0  0  4           0  0  0
  -14.0711    1.4029    5.2035 C   0  0  0  0  0  4           0  0  0
  -14.9207    0.4475    5.7333 C   0  0  0  0  0  4           0  0  0
  -12.5612   -2.0025    7.3729 C   0  0  1  0  0  4           0  0  0
  -10.0098    0.1620    7.4270 C   0  0  0  0  0  4           0  0  0
   -9.8160    0.1028    5.0833 C   0  0  0  0  0  4           0  0  0
   -6.4443   -0.0000    4.1549 C   0  0  0  0  0  4           0  0  0
   -4.9348   -0.0000    4.1786 C   0  0  0  0  0  4           0  0  0
   -4.3078   -0.0000    2.7854 C   0  0  0  0  0  4           0  0  0
   -2.7806   -0.0000    2.7854 C   0  0  0  0  0  4           0  0  0
   -2.1539   -0.0000    1.3927 C   0  0  0  0  0  4           0  0  0
   -0.6267    0.0000    1.3927 C   0  0  0  0  0  4           0  0  0
    0.0000   -0.0000    0.0000 C   0  0  0  0  0  4           0  0  0
    1.5278    0.0000   -0.0000 C   0  0  0  0  0  4           0  0  0
    2.1545    0.0000   -1.3927 C   0  0  0  0  0  4           0  0  0
    3.6817   -0.0000   -1.3927 C   0  0  0  0  0  4           0  0  0
    4.3084   -0.0000   -2.7854 C   0  0  0  0  0  4           0  0  0
    3.9306   -1.2061   -3.6426 C   0  0  0  0  0  4           0  0  0
    4.5573   -1.2061   -5.0353 C   0  0  0  0  0  4           0  0  0
    4.1794   -2.4122   -5.8926 C   0  0  0  0  0  4           0  0  0
    4.8061   -2.4122   -7.2853 C   0  0  0  0  0  4           0  0  0
    4.4283   -3.6183   -8.1425 C   0  0  0  0  0  4           0  0  0
    5.0550   -3.6183   -9.5352 C   0  0  0  0  0  4           0  0  0
    4.6569   -4.8330  -10.3596 C   0  0  0  0  0  4           0  0  0
  1 19  1  0     0  0
  2 19  1  0     0  0
  3 19  1  0     0  0
  4 20  2  0     0  0
  5 21  2  0     0  0
  6 22  2  0     0  0
  7  8  1  0     0  0
  7 10  1  0     0  0
  8 11  2  0     0  0
  9 12  1  0     0  0
  9 20  1  0     0  0
  9 21  1  0     0  0
 10 13  2  0     0  0
 10 20  1  0     0  0
 11 13  1  0     0  0
 11 22  1  0     0  0
 12 14  1  0     0  0
 12 15  2  0     0  0
 13 21  1  0     0  0
 14 16  2  0     0  0
 14 19  1  0     0  0
 15 17  1  0     0  0
 16 18  1  0     0  0
 17 18  2  0     0  0
 22 23  1  0     0  0
 23 24  1  0     0  0
 24 25  1  0     0  0
 25 26  1  0     0  0
 26 27  1  0     0  0
 27 28  1  0     0  0
 28 29  1  0     0  0
 29 30  1  0     0  0
 30 31  1  0     0  0
 31 32  1  0     0  0
 32 33  1  0     0  0
 33 34  1  0     0  0
 34 35  1  0     0  0
 35 36  1  0     0  0
 36 37  1  0     0  0
 37 38  1  0     0  0
 38 39  1  0     0  0
M  END
> <standard_type>
IC50

> <# Confs.>
25

> <canonical_smiles>
O=C1C2=C(C(C(CCCCCCCCCCCCCCCCC)=O)=NN2)C(N1C3=CC=CC=C3C(F)(F)F)=O

> <standard_relation>
=

> <predicted_activity_value>
6.3979400086720375

> <actual_activity_value>
6.494850021680094

> <Compound>
3

> <publication_ID>
nan

> <standard_units>
nM

> hash
9721077515220394765

$$$$
3_
XXILIB    08252103493D 0   0.00000     0.00000

 39 41  0     1  0            999 V2000
  -11.2090   -2.0915    7.5142 F   0  0  0  0  0  1           0  0  0
  -12.9459   -3.1718    6.7890 F   0  0  0  0  0  1           0  0  0
  -13.0705   -2.0307    8.6354 F   0  0  0  0  0  1           0  0  0
  -10.4329    0.2057    8.5706 O   0  0  0  0  0  2           0  0  0
  -10.0418    0.0822    3.8847 O   0  0  0  0  0  2           0  0  0
   -7.0670   -0.0000    3.0959 O   0  0  0  0  0  2           0  0  0
   -7.4063    0.0815    7.5538 N   0  0  0  0  0  3           0  0  0
   -6.4478    0.0376    6.5947 N   0  0  0  0  0  3           0  0  0
  -10.6940    0.1509    6.1915 N   0  0  1  0  0  3           0  0  0
   -8.6444    0.1112    7.0263 C   0  0  0  0  0  4           0  0  0
   -7.1309    0.0375    5.4281 C   0  0  0  0  0  4           0  0  0
  -12.1194    0.1844    6.0718 C   0  0  0  0  0  4           0  0  0
   -8.5073    0.0793    5.6746 C   0  0  0  0  0  4           0  0  0
  -12.9954   -0.7932    6.6097 C   0  0  0  0  0  4           0  0  0
  -12.6921    1.2713    5.3695 C   0  0  0  0  0  4           0  0  0
  -14.3874   -0.6365    6.4260 C   0  0  0  0  0  4           0  0  0
  -14.0711    1.4029    5.2035 C   0  0  0  0  0  4           0  0  0
  -14.9207    0.4475    5.7333 C   0  0  0  0  0  4           0  0  0
  -12.5612   -2.0025    7.3729 C   0  0  1  0  0  4           0  0  0
  -10.0098    0.1620    7.4270 C   0  0  0  0  0  4           0  0  0
   -9.8160    0.1028    5.0833 C   0  0  0  0  0  4           0  0  0
   -6.4443   -0.0000    4.1549 C   0  0  0  0  0  4           0  0  0
   -4.9348   -0.0000    4.1786 C   0  0  0  0  0  4           0  0  0
   -4.3078   -0.0000    2.7854 C   0  0  0  0  0  4           0  0  0
   -2.7806   -0.0000    2.7854 C   0  0  0  0  0  4           0  0  0
   -2.1539   -0.0000    1.3927 C   0  0  0  0  0  4           0  0  0
   -0.6267    0.0000    1.3927 C   0  0  0  0  0  4           0  0  0
    0.0000   -0.0000    0.0000 C   0  0  0  0  0  4           0  0  0
    1.5278   -0.0000   -0.0000 C   0  0  0  0  0  4           0  0  0
    2.1545    0.0000   -1.3927 C   0  0  0  0  0  4           0  0  0
    3.6817   -0.0000   -1.3927 C   0  0  0  0  0  4           0  0  0
    4.3084    1.2061   -0.6963 C   0  0  0  0  0  4           0  0  0
    5.8356    1.2061   -0.6963 C   0  0  0  0  0  4           0  0  0
    6.4623    2.4122   -0.0000 C   0  0  0  0  0  4           0  0  0
    7.9895    2.4122   -0.0000 C   0  0  0  0  0  4           0  0  0
    8.6162    3.6183    0.6963 C   0  0  0  0  0  4           0  0  0
   10.1434    3.6183    0.6963 C   0  0  0  0  0  4           0  0  0
   10.7701    4.8244    1.3927 C   0  0  0  0  0  4           0  0  0
   12.2907    4.7907    1.3732 C   0  0  0  0  0  4           0  0  0
  1 19  1  0     0  0
  2 19  1  0     0  0
  3 19  1  0     0  0
  4 20  2  0     0  0
  5 21  2  0     0  0
  6 22  2  0     0  0
  7  8  1  0     0  0
  7 10  1  0     0  0
  8 11  2  0     0  0
  9 12  1  0     0  0
  9 20  1  0     0  0
  9 21  1  0     0  0
 10 13  2  0     0  0
 10 20  1  0     0  0
 11 13  1  0     0  0
 11 22  1  0     0  0
 12 14  1  0     0  0
 12 15  2  0     0  0
 13 21  1  0     0  0
 14 16  2  0     0  0
 14 19  1  0     0  0
 15 17  1  0     0  0
 16 18  1  0     0  0
 17 18  2  0     0  0
 22 23  1  0     0  0
 23 24  1  0     0  0
 24 25  1  0     0  0
 25 26  1  0     0  0
 26 27  1  0     0  0
 27 28  1  0     0  0
 28 29  1  0     0  0
 29 30  1  0     0  0
 30 31  1  0     0  0
 31 32  1  0     0  0
 32 33  1  0     0  0
 33 34  1  0     0  0
 34 35  1  0     0  0
 35 36  1  0     0  0
 36 37  1  0     0  0
 37 38  1  0     0  0
 38 39  1  0     0  0
M  END
> <standard_type>
IC50

> <# Confs.>
25

> <canonical_smiles>
O=C1C2=C(C(C(CCCCCCCCCCCCCCCCC)=O)=NN2)C(N1C3=CC=CC=C3C(F)(F)F)=O

> <standard_relation>
=

> <predicted_activity_value>
6.3979400086720375

> <actual_activity_value>
6.494850021680094

> <Compound>
3

> <publication_ID>
nan

> <standard_units>
nM

> hash
9721077515220394765

$$$$
12_
XXILIB    08252103493D 0   0.00000     0.00000

 36 38  0     1  0            999 V2000
  -10.5377    0.0466    8.4731 O   0  0  0  0  0  2           0  0  0
  -10.1075    0.0347    3.7923 O   0  0  0  0  0  2           0  0  0
   -7.0238   -0.0000    3.0271 O   0  0  0  0  0  2           0  0  0
   -7.5026    0.0200    7.4882 N   0  0  0  0  0  3           0  0  0
   -6.5319    0.0108    6.5430 N   0  0  0  0  0  3           0  0  0
  -10.7745    0.0428    6.0921 N   0  0  2  0  0  3           0  0  0
   -8.7333    0.0276    6.9439 C   0  0  0  0  0  4           0  0  0
   -7.1973    0.0111    5.3655 C   0  0  0  0  0  4           0  0  0
  -12.1869    0.0566    5.9611 C   0  0  0  0  0  4           0  0  0
   -8.5794    0.0223    5.5927 C   0  0  0  0  0  4           0  0  0
  -15.0051    0.0871    5.7014 C   0  0  0  0  0  4           0  0  0
  -12.8151   -0.5431    4.8585 C   0  0  0  0  0  4           0  0  0
  -12.9931    0.6662    6.9343 C   0  0  0  0  0  4           0  0  0
  -14.2090   -0.5314    4.7337 C   0  0  0  0  0  4           0  0  0
  -14.3862    0.6757    6.8079 C   0  0  0  0  0  4           0  0  0
  -10.1029    0.0405    7.3329 C   0  0  0  0  0  4           0  0  0
   -9.8857    0.0323    4.9918 C   0  0  0  0  0  4           0  0  0
   -6.4504   -0.0000    4.1160 C   0  0  0  0  0  4           0  0  0
  -16.4994    0.0713    5.5894 C   0  0  0  0  0  4           0  0  0
   -4.9386    0.0000    4.1775 C   0  0  0  0  0  4           0  0  0
   -4.3108    0.0000    2.7850 C   0  0  0  0  0  4           0  0  0
   -2.7833    0.0000    2.7850 C   0  0  0  0  0  4           0  0  0
   -2.1554    0.0000    1.3925 C   0  0  0  0  0  4           0  0  0
   -0.6279    0.0000    1.3925 C   0  0  0  0  0  4           0  0  0
    0.0000   -0.0000    0.0000 C   0  0  0  0  0  4           0  0  0
    1.5275   -0.0000   -0.0000 C   0  0  0  0  0  4           0  0  0
    2.1554    0.0000   -1.3925 C   0  0  0  0  0  4           0  0  0
    3.6829    0.0000   -1.3925 C   0  0  0  0  0  4           0  0  0
    4.3108    0.0000   -2.7850 C   0  0  0  0  0  4           0  0  0
    5.8383    0.0000   -2.7850 C   0  0  0  0  0  4           0  0  0
    6.4661    0.0000   -4.1775 C   0  0  0  0  0  4           0  0  0
    7.9937    0.0000   -4.1775 C   0  0  0  0  0  4           0  0  0
    8.6215    0.0000   -5.5700 C   0  0  0  0  0  4           0  0  0
   10.1490    0.0000   -5.5700 C   0  0  0  0  0  4           0  0  0
   10.7769    0.0000   -6.9625 C   0  0  0  0  0  4           0  0  0
   12.2949    0.0000   -6.8879 C   0  0  0  0  0  4           0  0  0
  1 16  2  0     0  0
  2 17  2  0     0  0
  3 18  2  0     0  0
  4  5  1  0     0  0
  4  7  1  0     0  0
  5  8  2  0     0  0
  6  9  1  0     0  0
  6 16  1  0     0  0
  6 17  1  0     0  0
  7 10  2  0     0  0
  7 16  1  0     0  0
  8 10  1  0     0  0
  8 18  1  0     0  0
  9 12  2  0     0  0
  9 13  1  0     0  0
 10 17  1  0     0  0
 11 14  2  0     0  0
 11 15  1  0     0  0
 11 19  1  0     0  0
 12 14  1  0     0  0
 13 15  2  0     0  0
 18 20  1  0     0  0
 20 21  1  0     0  0
 21 22  1  0     0  0
 22 23  1  0     0  0
 23 24  1  0     0  0
 24 25  1  0     0  0
 25 26  1  0     0  0
 26 27  1  0     0  0
 27 28  1  0     0  0
 28 29  1  0     0  0
 29 30  1  0     0  0
 30 31  1  0     0  0
 31 32  1  0     0  0
 32 33  1  0     0  0
 33 34  1  0     0  0
 34 35  1  0     0  0
 35 36  1  0     0  0
M  END
> <standard_type>
IC50

> <# Confs.>
25

> <canonical_smiles>
O=C1C2=C(C(C(CCCCCCCCCCCCCCCCC)=O)=NN2)C(N1C3=CC=C(C)C=C3)=O

> <standard_relation>
=

> <predicted_activity_value>
5.356547323513812

> <actual_activity_value>
5.443697499232712

> <Compound>
12

> <publication_ID>
nan

> <standard_units>
nM

> hash
5256564608547534824

$$$$
12_
XXILIB    08252103493D 0   0.00000     0.00000

 36 38  0     1  0            999 V2000
  -10.5377   -4.9493   -0.0187 O   0  0  0  0  0  2           0  0  0
  -10.1075   -0.8896    2.3114 O   0  0  0  0  0  2           0  0  0
   -7.0238   -0.2097    2.6640 O   0  0  0  0  0  2           0  0  0
   -7.5026   -4.0831    0.4507 N   0  0  0  0  0  3           0  0  0
   -6.5319   -3.2599    0.9153 N   0  0  0  0  0  3           0  0  0
  -10.7745   -2.8854    1.1685 N   0  0  2  0  0  3           0  0  0
   -8.7333   -3.6155    0.7295 C   0  0  0  0  0  4           0  0  0
   -7.1973   -2.2403    1.5044 C   0  0  0  0  0  4           0  0  0
  -12.1869   -2.7789    1.2459 C   0  0  0  0  0  4           0  0  0
   -8.5794   -2.4427    1.4004 C   0  0  0  0  0  4           0  0  0
  -15.0051   -2.5692    1.4022 C   0  0  0  0  0  4           0  0  0
  -12.8151   -1.5242    1.2779 C   0  0  0  0  0  4           0  0  0
  -12.9931   -3.9265    1.2873 C   0  0  0  0  0  4           0  0  0
  -14.2090   -1.4219    1.3505 C   0  0  0  0  0  4           0  0  0
  -14.3862   -3.8217    1.3588 C   0  0  0  0  0  4           0  0  0
  -10.1029   -3.9589    0.5462 C   0  0  0  0  0  4           0  0  0
   -9.8857   -1.9273    1.7096 C   0  0  0  0  0  4           0  0  0
   -6.4504   -1.1526    2.1195 C   0  0  0  0  0  4           0  0  0
  -16.4994   -2.4644    1.4446 C   0  0  0  0  0  4           0  0  0
   -4.9386   -1.2059    2.0888 C   0  0  0  0  0  4           0  0  0
   -4.3108    0.0000    2.7850 C   0  0  0  0  0  4           0  0  0
   -2.7833    0.0000    2.7850 C   0  0  0  0  0  4           0  0  0
   -2.1554    0.0000    1.3925 C   0  0  0  0  0  4           0  0  0
   -0.6279    0.0000    1.3925 C   0  0  0  0  0  4           0  0  0
    0.0000    0.0000    0.0000 C   0  0  0  0  0  4           0  0  0
    1.5275   -0.0000   -0.0000 C   0  0  0  0  0  4           0  0  0
    2.1554    0.0000   -1.3925 C   0  0  0  0  0  4           0  0  0
    3.6829    0.0000   -1.3925 C   0  0  0  0  0  4           0  0  0
    4.3108    0.0000   -2.7850 C   0  0  0  0  0  4           0  0  0
    5.8383    0.0000   -2.7850 C   0  0  0  0  0  4           0  0  0
    6.4661    0.0000   -4.1775 C   0  0  0  0  0  4           0  0  0
    7.9937    0.0000   -4.1775 C   0  0  0  0  0  4           0  0  0
    8.6215    0.0000   -5.5700 C   0  0  0  0  0  4           0  0  0
   10.1490    0.0000   -5.5700 C   0  0  0  0  0  4           0  0  0
   10.7769    0.0000   -6.9625 C   0  0  0  0  0  4           0  0  0
   12.2949    0.0000   -6.8879 C   0  0  0  0  0  4           0  0  0
  1 16  2  0     0  0
  2 17  2  0     0  0
  3 18  2  0     0  0
  4  5  1  0     0  0
  4  7  1  0     0  0
  5  8  2  0     0  0
  6  9  1  0     0  0
  6 16  1  0     0  0
  6 17  1  0     0  0
  7 10  2  0     0  0
  7 16  1  0     0  0
  8 10  1  0     0  0
  8 18  1  0     0  0
  9 12  2  0     0  0
  9 13  1  0     0  0
 10 17  1  0     0  0
 11 14  2  0     0  0
 11 15  1  0     0  0
 11 19  1  0     0  0
 12 14  1  0     0  0
 13 15  2  0     0  0
 18 20  1  0     0  0
 20 21  1  0     0  0
 21 22  1  0     0  0
 22 23  1  0     0  0
 23 24  1  0     0  0
 24 25  1  0     0  0
 25 26  1  0     0  0
 26 27  1  0     0  0
 27 28  1  0     0  0
 28 29  1  0     0  0
 29 30  1  0     0  0
 30 31  1  0     0  0
 31 32  1  0     0  0
 32 33  1  0     0  0
 33 34  1  0     0  0
 34 35  1  0     0  0
 35 36  1  0     0  0
M  END
> <standard_type>
IC50

> <# Confs.>
25

> <canonical_smiles>
O=C1C2=C(C(C(CCCCCCCCCCCCCCCCC)=O)=NN2)C(N1C3=CC=C(C)C=C3)=O

> <standard_relation>
=

> <predicted_activity_value>
5.356547323513812

> <actual_activity_value>
5.443697499232712

> <Compound>
12

> <publication_ID>
nan

> <standard_units>
nM

> hash
5256564608547534824

$$$$
12_
XXILIB    08252103493D 0   0.00000     0.00000

 36 38  0     1  0            999 V2000
  -10.3558   -4.5197    4.0036 O   0  0  0  0  0  2           0  0  0
  -10.1160    0.1747    4.0014 O   0  0  0  0  0  2           0  0  0
   -7.0671    1.0646    4.0909 O   0  0  0  0  0  2           0  0  0
   -7.3646   -3.4122    4.0988 N   0  0  0  0  0  3           0  0  0
   -6.4336   -2.4284    4.1274 N   0  0  0  0  0  3           0  0  0
  -10.6888   -2.1504    3.9863 N   0  0  2  0  0  3           0  0  0
   -8.6157   -2.9184    4.0554 C   0  0  0  0  0  4           0  0  0
   -7.1458   -1.2789    4.0988 C   0  0  0  0  0  4           0  0  0
  -12.1047   -2.0770    3.9424 C   0  0  0  0  0  4           0  0  0
   -8.5167   -1.5621    4.0542 C   0  0  0  0  0  4           0  0  0
  -14.9300   -1.9321    3.8579 C   0  0  0  0  0  4           0  0  0
  -12.7523   -1.0008    3.3159 C   0  0  0  0  0  4           0  0  0
  -12.8948   -3.0821    4.5204 C   0  0  0  0  0  4           0  0  0
  -14.1494   -0.9328    3.2707 C   0  0  0  0  0  4           0  0  0
  -14.2912   -3.0125    4.4730 C   0  0  0  0  0  4           0  0  0
   -9.9677   -3.3629    4.0134 C   0  0  0  0  0  4           0  0  0
   -9.8457   -1.0149    4.0101 C   0  0  0  0  0  4           0  0  0
   -6.4504   -0.0000    4.1160 C   0  0  0  0  0  4           0  0  0
  -16.4258   -1.8810    3.7813 C   0  0  0  0  0  4           0  0  0
   -4.9386    0.0000    4.1775 C   0  0  0  0  0  4           0  0  0
   -4.3108    0.0000    2.7850 C   0  0  0  0  0  4           0  0  0
   -2.7833    0.0000    2.7850 C   0  0  0  0  0  4           0  0  0
   -2.1554    0.0000    1.3925 C   0  0  0  0  0  4           0  0  0
   -0.6279    0.0000    1.3925 C   0  0  0  0  0  4           0  0  0
    0.0000   -0.0000    0.0000 C   0  0  0  0  0  4           0  0  0
    1.5275   -0.0000   -0.0000 C   0  0  0  0  0  4           0  0  0
    2.1554    0.0000   -1.3925 C   0  0  0  0  0  4           0  0  0
    3.6829    0.0000   -1.3925 C   0  0  0  0  0  4           0  0  0
    4.3108    0.0000   -2.7850 C   0  0  0  0  0  4           0  0  0
    5.8383    0.0000   -2.7850 C   0  0  0  0  0  4           0  0  0
    6.4661    0.0000   -4.1775 C   0  0  0  0  0  4           0  0  0
    7.9937    0.0000   -4.1775 C   0  0  0  0  0  4           0  0  0
    8.6215    0.0000   -5.5700 C   0  0  0  0  0  4           0  0  0
   10.1490    0.0000   -5.5700 C   0  0  0  0  0  4           0  0  0
   10.7769    0.0000   -6.9625 C   0  0  0  0  0  4           0  0  0
   12.2949    0.0000   -6.8879 C   0  0  0  0  0  4           0  0  0
  1 16  2  0     0  0
  2 17  2  0     0  0
  3 18  2  0     0  0
  4  5  1  0     0  0
  4  7  1  0     0  0
  5  8  2  0     0  0
  6  9  1  0     0  0
  6 16  1  0     0  0
  6 17  1  0     0  0
  7 10  2  0     0  0
  7 16  1  0     0  0
  8 10  1  0     0  0
  8 18  1  0     0  0
  9 12  2  0     0  0
  9 13  1  0     0  0
 10 17  1  0     0  0
 11 14  2  0     0  0
 11 15  1  0     0  0
 11 19  1  0     0  0
 12 14  1  0     0  0
 13 15  2  0     0  0
 18 20  1  0     0  0
 20 21  1  0     0  0
 21 22  1  0     0  0
 22 23  1  0     0  0
 23 24  1  0     0  0
 24 25  1  0     0  0
 25 26  1  0     0  0
 26 27  1  0     0  0
 27 28  1  0     0  0
 28 29  1  0     0  0
 29 30  1  0     0  0
 30 31  1  0     0  0
 31 32  1  0     0  0
 32 33  1  0     0  0
 33 34  1  0     0  0
 34 35  1  0     0  0
 35 36  1  0     0  0
M  END
> <standard_type>
IC50

> <# Confs.>
25

> <canonical_smiles>
O=C1C2=C(C(C(CCCCCCCCCCCCCCCCC)=O)=NN2)C(N1C3=CC=C(C)C=C3)=O

> <standard_relation>
=

> <predicted_activity_value>
5.356547323513812

> <actual_activity_value>
5.443697499232712

> <Compound>
12

> <publication_ID>
nan

> <standard_units>
nM

> hash
5256564608547534824

$$$$
12_
XXILIB    08252103493D 0   0.00000     0.00000

 36 38  0     1  0            999 V2000
  -10.3520    4.5197    3.9105 O   0  0  0  0  0  2           0  0  0
  -10.1132   -0.1747    3.9322 O   0  0  0  0  0  2           0  0  0
   -7.0671   -1.0646    4.0909 O   0  0  0  0  0  2           0  0  0
   -7.3630    3.4122    4.0588 N   0  0  0  0  0  3           0  0  0
   -6.4327    2.4284    4.1059 N   0  0  0  0  0  3           0  0  0
  -10.6853    2.1504    3.9008 N   0  0  2  0  0  3           0  0  0
   -8.6134    2.9184    4.0003 C   0  0  0  0  0  4           0  0  0
   -7.1449    1.2789    4.0766 C   0  0  0  0  0  4           0  0  0
  -12.1001    2.0770    3.8294 C   0  0  0  0  0  4           0  0  0
   -8.5149    1.5621    4.0096 C   0  0  0  0  0  4           0  0  0
  -14.9230    1.9321    3.6839 C   0  0  0  0  0  4           0  0  0
  -12.7965    1.0008    4.4012 C   0  0  0  0  0  4           0  0  0
  -12.8406    3.0821    3.1891 C   0  0  0  0  0  4           0  0  0
  -14.1927    0.9328    4.3326 C   0  0  0  0  0  4           0  0  0
  -14.2362    3.0125    3.1228 C   0  0  0  0  0  4           0  0  0
   -9.9644    3.3629    3.9323 C   0  0  0  0  0  4           0  0  0
   -9.8431    1.0149    3.9455 C   0  0  0  0  0  4           0  0  0
   -6.4504   -0.0000    4.1160 C   0  0  0  0  0  4           0  0  0
  -16.4200    1.8810    3.6387 C   0  0  0  0  0  4           0  0  0
   -4.9386    0.0000    4.1775 C   0  0  0  0  0  4           0  0  0
   -4.3108    0.0000    2.7850 C   0  0  0  0  0  4           0  0  0
   -2.7833    0.0000    2.7850 C   0  0  0  0  0  4           0  0  0
   -2.1554    0.0000    1.3925 C   0  0  0  0  0  4           0  0  0
   -0.6279    0.0000    1.3925 C   0  0  0  0  0  4           0  0  0
    0.0000   -0.0000    0.0000 C   0  0  0  0  0  4           0  0  0
    1.5275   -0.0000   -0.0000 C   0  0  0  0  0  4           0  0  0
    2.1554    0.0000   -1.3925 C   0  0  0  0  0  4           0  0  0
    3.6829    0.0000   -1.3925 C   0  0  0  0  0  4           0  0  0
    4.3108    0.0000   -2.7850 C   0  0  0  0  0  4           0  0  0
    5.8383    0.0000   -2.7850 C   0  0  0  0  0  4           0  0  0
    6.4661    0.0000   -4.1775 C   0  0  0  0  0  4           0  0  0
    7.9937    0.0000   -4.1775 C   0  0  0  0  0  4           0  0  0
    8.6215    0.0000   -5.5700 C   0  0  0  0  0  4           0  0  0
   10.1490    0.0000   -5.5700 C   0  0  0  0  0  4           0  0  0
   10.7769    0.0000   -6.9625 C   0  0  0  0  0  4           0  0  0
   12.2949    0.0000   -6.8879 C   0  0  0  0  0  4           0  0  0
  1 16  2  0     0  0
  2 17  2  0     0  0
  3 18  2  0     0  0
  4  5  1  0     0  0
  4  7  1  0     0  0
  5  8  2  0     0  0
  6  9  1  0     0  0
  6 16  1  0     0  0
  6 17  1  0     0  0
  7 10  2  0     0  0
  7 16  1  0     0  0
  8 10  1  0     0  0
  8 18  1  0     0  0
  9 12  2  0     0  0
  9 13  1  0     0  0
 10 17  1  0     0  0
 11 14  2  0     0  0
 11 15  1  0     0  0
 11 19  1  0     0  0
 12 14  1  0     0  0
 13 15  2  0     0  0
 18 20  1  0     0  0
 20 21  1  0     0  0
 21 22  1  0     0  0
 22 23  1  0     0  0
 23 24  1  0     0  0
 24 25  1  0     0  0
 25 26  1  0     0  0
 26 27  1  0     0  0
 27 28  1  0     0  0
 28 29  1  0     0  0
 29 30  1  0     0  0
 30 31  1  0     0  0
 31 32  1  0     0  0
 32 33  1  0     0  0
 33 34  1  0     0  0
 34 35  1  0     0  0
 35 36  1  0     0  0
M  END
> <standard_type>
IC50

> <# Confs.>
25

> <canonical_smiles>
O=C1C2=C(C(C(CCCCCCCCCCCCCCCCC)=O)=NN2)C(N1C3=CC=C(C)C=C3)=O

> <standard_relation>
=

> <predicted_activity_value>
5.356547323513812

> <actual_activity_value>
5.443697499232712

> <Compound>
12

> <publication_ID>
nan

> <standard_units>
nM

> hash
5256564608547534824

$$$$
12_
XXILIB    08252103493D 0   0.00000     0.00000

 36 38  0     1  0            999 V2000
  -10.5122    2.3002    7.8448 O   0  0  0  0  0  2           0  0  0
  -10.1077   -0.0573    3.7983 O   0  0  0  0  0  2           0  0  0
   -7.0296   -0.5323    3.1697 O   0  0  0  0  0  2           0  0  0
   -7.4836    1.7234    7.0214 N   0  0  0  0  0  3           0  0  0
   -6.5184    1.2235    6.2126 N   0  0  0  0  0  3           0  0  0
  -10.7619    1.1122    5.7829 N   0  0  2  0  0  3           0  0  0
   -8.7168    1.4831    6.5394 C   0  0  0  0  0  4           0  0  0
   -7.1901    0.6491    5.1887 C   0  0  0  0  0  4           0  0  0
  -12.1744    1.0875    5.6548 C   0  0  0  0  0  4           0  0  0
   -8.5704    0.8004    5.3725 C   0  0  0  0  0  4           0  0  0
  -14.9930    1.0398    5.4023 C   0  0  0  0  0  4           0  0  0
  -12.7841    1.0702    4.3907 C   0  0  0  0  0  4           0  0  0
  -12.9989    1.0743    6.7900 C   0  0  0  0  0  4           0  0  0
  -14.1779    1.0419    4.2673 C   0  0  0  0  0  4           0  0  0
  -14.3918    1.0449    6.6641 C   0  0  0  0  0  4           0  0  0
  -10.0837    1.7166    6.8625 C   0  0  0  0  0  4           0  0  0
   -9.8795    0.5354    4.8398 C   0  0  0  0  0  4           0  0  0
   -6.4504   -0.0000    4.1160 C   0  0  0  0  0  4           0  0  0
  -16.4848    0.9742    5.2749 C   0  0  0  0  0  4           0  0  0
   -4.9386    0.0000    4.1775 C   0  0  0  0  0  4           0  0  0
   -4.3108    0.0000    2.7850 C   0  0  0  0  0  4           0  0  0
   -2.7833    0.0000    2.7850 C   0  0  0  0  0  4           0  0  0
   -2.1554    0.0000    1.3925 C   0  0  0  0  0  4           0  0  0
   -0.6279    0.0000    1.3925 C   0  0  0  0  0  4           0  0  0
    0.0000   -0.0000    0.0000 C   0  0  0  0  0  4           0  0  0
    1.5275   -0.0000   -0.0000 C   0  0  0  0  0  4           0  0  0
    2.1554    0.0000   -1.3925 C   0  0  0  0  0  4           0  0  0
    3.6829    0.0000   -1.3925 C   0  0  0  0  0  4           0  0  0
    4.3108    0.0000   -2.7850 C   0  0  0  0  0  4           0  0  0
    5.8383    0.0000   -2.7850 C   0  0  0  0  0  4           0  0  0
    6.4661    0.0000   -4.1775 C   0  0  0  0  0  4           0  0  0
    7.9937    0.0000   -4.1775 C   0  0  0  0  0  4           0  0  0
    8.6215    0.0000   -5.5700 C   0  0  0  0  0  4           0  0  0
   10.1490    0.0000   -5.5700 C   0  0  0  0  0  4           0  0  0
   10.7769    0.0000   -6.9625 C   0  0  0  0  0  4           0  0  0
   12.2949    0.0000   -6.8879 C   0  0  0  0  0  4           0  0  0
  1 16  2  0     0  0
  2 17  2  0     0  0
  3 18  2  0     0  0
  4  5  1  0     0  0
  4  7  1  0     0  0
  5  8  2  0     0  0
  6  9  1  0     0  0
  6 16  1  0     0  0
  6 17  1  0     0  0
  7 10  2  0     0  0
  7 16  1  0     0  0
  8 10  1  0     0  0
  8 18  1  0     0  0
  9 12  2  0     0  0
  9 13  1  0     0  0
 10 17  1  0     0  0
 11 14  2  0     0  0
 11 15  1  0     0  0
 11 19  1  0     0  0
 12 14  1  0     0  0
 13 15  2  0     0  0
 18 20  1  0     0  0
 20 21  1  0     0  0
 21 22  1  0     0  0
 22 23  1  0     0  0
 23 24  1  0     0  0
 24 25  1  0     0  0
 25 26  1  0     0  0
 26 27  1  0     0  0
 27 28  1  0     0  0
 28 29  1  0     0  0
 29 30  1  0     0  0
 30 31  1  0     0  0
 31 32  1  0     0  0
 32 33  1  0     0  0
 33 34  1  0     0  0
 34 35  1  0     0  0
 35 36  1  0     0  0
M  END
> <standard_type>
IC50

> <# Confs.>
25

> <canonical_smiles>
O=C1C2=C(C(C(CCCCCCCCCCCCCCCCC)=O)=NN2)C(N1C3=CC=C(C)C=C3)=O

> <standard_relation>
=

> <predicted_activity_value>
5.356547323513812

> <actual_activity_value>
5.443697499232712

> <Compound>
12

> <publication_ID>
nan

> <standard_units>
nM

> hash
5256564608547534824

$$$$
12_
XXILIB    08252103493D 0   0.00000     0.00000

 36 38  0     1  0            999 V2000
   -7.0734    6.5985    5.4836 O   0  0  0  0  0  2           0  0  0
   -3.4252    4.0628    7.0183 O   0  0  0  0  0  2           0  0  0
   -3.5246    1.1790    5.6882 O   0  0  0  0  0  2           0  0  0
   -6.9901    3.6494    4.2676 N   0  0  0  0  0  3           0  0  0
   -6.4590    2.4122    4.1159 N   0  0  0  0  0  3           0  0  0
   -5.1110    5.6829    6.5012 N   0  0  2  0  0  3           0  0  0
   -6.2674    4.4056    5.1142 C   0  0  0  0  0  4           0  0  0
   -5.3598    2.4099    4.9041 C   0  0  0  0  0  4           0  0  0
   -4.6793    6.7796    7.2904 C   0  0  0  0  0  4           0  0  0
   -5.2203    3.6498    5.5405 C   0  0  0  0  0  4           0  0  0
   -3.8208    8.9679    8.8670 C   0  0  0  0  0  4           0  0  0
   -3.3178    6.9759    7.5698 C   0  0  0  0  0  4           0  0  0
   -5.6029    7.7003    7.8083 C   0  0  0  0  0  4           0  0  0
   -2.8943    8.0610    8.3456 C   0  0  0  0  0  4           0  0  0
   -5.1770    8.7847    8.5826 C   0  0  0  0  0  4           0  0  0
   -6.2613    5.7103    5.6846 C   0  0  0  0  0  4           0  0  0
   -4.4358    4.4411    6.4494 C   0  0  0  0  0  4           0  0  0
   -4.5313    1.2154    4.9813 C   0  0  0  0  0  4           0  0  0
   -3.3685   10.1505    9.6687 C   0  0  0  0  0  4           0  0  0
   -4.9386    0.0000    4.1775 C   0  0  0  0  0  4           0  0  0
   -4.3108    0.0000    2.7850 C   0  0  0  0  0  4           0  0  0
   -2.7833    0.0000    2.7850 C   0  0  0  0  0  4           0  0  0
   -2.1554    0.0000    1.3925 C   0  0  0  0  0  4           0  0  0
   -0.6279   -0.0000    1.3925 C   0  0  0  0  0  4           0  0  0
    0.0000    0.0000    0.0000 C   0  0  0  0  0  4           0  0  0
    1.5275   -0.0000   -0.0000 C   0  0  0  0  0  4           0  0  0
    2.1554    0.0000   -1.3925 C   0  0  0  0  0  4           0  0  0
    3.6829    0.0000   -1.3925 C   0  0  0  0  0  4           0  0  0
    4.3108    0.0000   -2.7850 C   0  0  0  0  0  4           0  0  0
    5.8383    0.0000   -2.7850 C   0  0  0  0  0  4           0  0  0
    6.4661    0.0000   -4.1775 C   0  0  0  0  0  4           0  0  0
    7.9937    0.0000   -4.1775 C   0  0  0  0  0  4           0  0  0
    8.6215    0.0000   -5.5700 C   0  0  0  0  0  4           0  0  0
   10.1490    0.0000   -5.5700 C   0  0  0  0  0  4           0  0  0
   10.7769    0.0000   -6.9625 C   0  0  0  0  0  4           0  0  0
   12.2949    0.0000   -6.8879 C   0  0  0  0  0  4           0  0  0
  1 16  2  0     0  0
  2 17  2  0     0  0
  3 18  2  0     0  0
  4  5  1  0     0  0
  4  7  1  0     0  0
  5  8  2  0     0  0
  6  9  1  0     0  0
  6 16  1  0     0  0
  6 17  1  0     0  0
  7 10  2  0     0  0
  7 16  1  0     0  0
  8 10  1  0     0  0
  8 18  1  0     0  0
  9 12  2  0     0  0
  9 13  1  0     0  0
 10 17  1  0     0  0
 11 14  2  0     0  0
 11 15  1  0     0  0
 11 19  1  0     0  0
 12 14  1  0     0  0
 13 15  2  0     0  0
 18 20  1  0     0  0
 20 21  1  0     0  0
 21 22  1  0     0  0
 22 23  1  0     0  0
 23 24  1  0     0  0
 24 25  1  0     0  0
 25 26  1  0     0  0
 26 27  1  0     0  0
 27 28  1  0     0  0
 28 29  1  0     0  0
 29 30  1  0     0  0
 30 31  1  0     0  0
 31 32  1  0     0  0
 32 33  1  0     0  0
 33 34  1  0     0  0
 34 35  1  0     0  0
 35 36  1  0     0  0
M  END
> <standard_type>
IC50

> <# Confs.>
25

> <canonical_smiles>
O=C1C2=C(C(C(CCCCCCCCCCCCCCCCC)=O)=NN2)C(N1C3=CC=C(C)C=C3)=O

> <standard_relation>
=

> <predicted_activity_value>
5.356547323513812

> <actual_activity_value>
5.443697499232712

> <Compound>
12

> <publication_ID>
nan

> <standard_units>
nM

> hash
5256564608547534824

$$$$
12_
XXILIB    08252103493D 0   0.00000     0.00000

 36 38  0     1  0            999 V2000
  -10.5377    0.0466    8.4731 O   0  0  0  0  0  2           0  0  0
  -10.1075    0.0347    3.7923 O   0  0  0  0  0  2           0  0  0
   -7.0238   -0.0000    3.0271 O   0  0  0  0  0  2           0  0  0
   -7.5026    0.0200    7.4882 N   0  0  0  0  0  3           0  0  0
   -6.5319    0.0108    6.5430 N   0  0  0  0  0  3           0  0  0
  -10.7745    0.0428    6.0921 N   0  0  2  0  0  3           0  0  0
   -8.7333    0.0276    6.9439 C   0  0  0  0  0  4           0  0  0
   -7.1973    0.0111    5.3655 C   0  0  0  0  0  4           0  0  0
  -12.1869    0.0566    5.9611 C   0  0  0  0  0  4           0  0  0
   -8.5794    0.0223    5.5927 C   0  0  0  0  0  4           0  0  0
  -15.0053    0.0841    5.7032 C   0  0  0  0  0  4           0  0  0
  -12.8029    0.6607    4.8541 C   0  0  0  0  0  4           0  0  0
  -13.0048   -0.5387    6.9334 C   0  0  0  0  0  4           0  0  0
  -14.1965    0.6696    4.7255 C   0  0  0  0  0  4           0  0  0
  -14.3974   -0.5296    6.8021 C   0  0  0  0  0  4           0  0  0
  -10.1029    0.0405    7.3329 C   0  0  0  0  0  4           0  0  0
   -9.8857    0.0323    4.9918 C   0  0  0  0  0  4           0  0  0
   -6.4504   -0.0000    4.1160 C   0  0  0  0  0  4           0  0  0
  -16.4961    0.0606    5.5519 C   0  0  0  0  0  4           0  0  0
   -4.9386    0.0000    4.1775 C   0  0  0  0  0  4           0  0  0
   -4.3108    0.0000    2.7850 C   0  0  0  0  0  4           0  0  0
   -2.7833    0.0000    2.7850 C   0  0  0  0  0  4           0  0  0
   -2.1554    0.0000    1.3925 C   0  0  0  0  0  4           0  0  0
   -0.6279    0.0000    1.3925 C   0  0  0  0  0  4           0  0  0
    0.0000   -0.0000    0.0000 C   0  0  0  0  0  4           0  0  0
    1.5275   -0.0000   -0.0000 C   0  0  0  0  0  4           0  0  0
    2.1554    0.0000   -1.3925 C   0  0  0  0  0  4           0  0  0
    3.6829    0.0000   -1.3925 C   0  0  0  0  0  4           0  0  0
    4.3108    0.0000   -2.7850 C   0  0  0  0  0  4           0  0  0
    5.8383    0.0000   -2.7850 C   0  0  0  0  0  4           0  0  0
    6.4661    0.0000   -4.1775 C   0  0  0  0  0  4           0  0  0
    7.9937    0.0000   -4.1775 C   0  0  0  0  0  4           0  0  0
    8.6215    0.0000   -5.5700 C   0  0  0  0  0  4           0  0  0
   10.1490    0.0000   -5.5700 C   0  0  0  0  0  4           0  0  0
   10.7769    1.2059   -4.8738 C   0  0  0  0  0  4           0  0  0
   12.2949    1.1413   -4.9111 C   0  0  0  0  0  4           0  0  0
  1 16  2  0     0  0
  2 17  2  0     0  0
  3 18  2  0     0  0
  4  5  1  0     0  0
  4  7  1  0     0  0
  5  8  2  0     0  0
  6  9  1  0     0  0
  6 16  1  0     0  0
  6 17  1  0     0  0
  7 10  2  0     0  0
  7 16  1  0     0  0
  8 10  1  0     0  0
  8 18  1  0     0  0
  9 12  2  0     0  0
  9 13  1  0     0  0
 10 17  1  0     0  0
 11 14  2  0     0  0
 11 15  1  0     0  0
 11 19  1  0     0  0
 12 14  1  0     0  0
 13 15  2  0     0  0
 18 20  1  0     0  0
 20 21  1  0     0  0
 21 22  1  0     0  0
 22 23  1  0     0  0
 23 24  1  0     0  0
 24 25  1  0     0  0
 25 26  1  0     0  0
 26 27  1  0     0  0
 27 28  1  0     0  0
 28 29  1  0     0  0
 29 30  1  0     0  0
 30 31  1  0     0  0
 31 32  1  0     0  0
 32 33  1  0     0  0
 33 34  1  0     0  0
 34 35  1  0     0  0
 35 36  1  0     0  0
M  END
> <standard_type>
IC50

> <# Confs.>
25

> <canonical_smiles>
O=C1C2=C(C(C(CCCCCCCCCCCCCCCCC)=O)=NN2)C(N1C3=CC=C(C)C=C3)=O

> <standard_relation>
=

> <predicted_activity_value>
5.356547323513812

> <actual_activity_value>
5.443697499232712

> <Compound>
12

> <publication_ID>
nan

> <standard_units>
nM

> hash
5256564608547534824

$$$$
12_
XXILIB    08252103493D 0   0.00000     0.00000

 36 38  0     1  0            999 V2000
   -3.8096    1.9447   10.8669 O   0  0  0  0  0  2           0  0  0
   -3.4962    4.2445    6.7794 O   0  0  0  0  0  2           0  0  0
   -4.2768    2.2757    4.4109 O   0  0  0  0  0  2           0  0  0
   -4.5490    0.1351    8.3446 N   0  0  0  0  0  3           0  0  0
   -4.7270   -0.0889    7.0203 N   0  0  0  0  0  3           0  0  0
   -3.5270    3.4698    9.0450 N   0  0  2  0  0  3           0  0  0
   -4.1637    1.4005    8.5924 C   0  0  0  0  0  4           0  0  0
   -4.4394    1.0930    6.4290 C   0  0  0  0  0  4           0  0  0
   -3.1263    4.6429    9.7345 C   0  0  0  0  0  4           0  0  0
   -4.0829    2.0417    7.3959 C   0  0  0  0  0  4           0  0  0
   -2.3241    6.9820   11.1115 C   0  0  0  0  0  4           0  0  0
   -3.4314    5.9164    9.2294 C   0  0  0  0  0  4           0  0  0
   -2.4185    4.5599   10.9432 C   0  0  0  0  0  4           0  0  0
   -3.0382    7.0722    9.9137 C   0  0  0  0  0  4           0  0  0
   -2.0275    5.7166   11.6259 C   0  0  0  0  0  4           0  0  0
   -3.8240    2.2479    9.6850 C   0  0  0  0  0  4           0  0  0
   -3.6699    3.3972    7.6397 C   0  0  0  0  0  4           0  0  0
   -4.5313    1.2154    4.9813 C   0  0  0  0  0  4           0  0  0
   -1.9317    8.2164   11.8652 C   0  0  0  0  0  4           0  0  0
   -4.9386    0.0000    4.1775 C   0  0  0  0  0  4           0  0  0
   -4.3108    0.0000    2.7850 C   0  0  0  0  0  4           0  0  0
   -2.7833    0.0000    2.7850 C   0  0  0  0  0  4           0  0  0
   -2.1554    0.0000    1.3925 C   0  0  0  0  0  4           0  0  0
   -0.6279   -0.0000    1.3925 C   0  0  0  0  0  4           0  0  0
    0.0000    0.0000    0.0000 C   0  0  0  0  0  4           0  0  0
    1.5275   -0.0000   -0.0000 C   0  0  0  0  0  4           0  0  0
    2.1554    0.0000   -1.3925 C   0  0  0  0  0  4           0  0  0
    3.6829    0.0000   -1.3925 C   0  0  0  0  0  4           0  0  0
    4.3108    0.0000   -2.7850 C   0  0  0  0  0  4           0  0  0
    5.8383    0.0000   -2.7850 C   0  0  0  0  0  4           0  0  0
    6.4661    0.0000   -4.1775 C   0  0  0  0  0  4           0  0  0
    7.9937    0.0000   -4.1775 C   0  0  0  0  0  4           0  0  0
    8.6215    0.0000   -5.5700 C   0  0  0  0  0  4           0  0  0
   10.1490    0.0000   -5.5700 C   0  0  0  0  0  4           0  0  0
   10.7769    0.0000   -6.9625 C   0  0  0  0  0  4           0  0  0
   12.2949    0.0000   -6.8879 C   0  0  0  0  0  4           0  0  0
  1 16  2  0     0  0
  2 17  2  0     0  0
  3 18  2  0     0  0
  4  5  1  0     0  0
  4  7  1  0     0  0
  5  8  2  0     0  0
  6  9  1  0     0  0
  6 16  1  0     0  0
  6 17  1  0     0  0
  7 10  2  0     0  0
  7 16  1  0     0  0
  8 10  1  0     0  0
  8 18  1  0     0  0
  9 12  2  0     0  0
  9 13  1  0     0  0
 10 17  1  0     0  0
 11 14  2  0     0  0
 11 15  1  0     0  0
 11 19  1  0     0  0
 12 14  1  0     0  0
 13 15  2  0     0  0
 18 20  1  0     0  0
 20 21  1  0     0  0
 21 22  1  0     0  0
 22 23  1  0     0  0
 23 24  1  0     0  0
 24 25  1  0     0  0
 25 26  1  0     0  0
 26 27  1  0     0  0
 27 28  1  0     0  0
 28 29  1  0     0  0
 29 30  1  0     0  0
 30 31  1  0     0  0
 31 32  1  0     0  0
 32 33  1  0     0  0
 33 34  1  0     0  0
 34 35  1  0     0  0
 35 36  1  0     0  0
M  END
> <standard_type>
IC50

> <# Confs.>
25

> <canonical_smiles>
O=C1C2=C(C(C(CCCCCCCCCCCCCCCCC)=O)=NN2)C(N1C3=CC=C(C)C=C3)=O

> <standard_relation>
=

> <predicted_activity_value>
5.356547323513812

> <actual_activity_value>
5.443697499232712

> <Compound>
12

> <publication_ID>
nan

> <standard_units>
nM

> hash
5256564608547534824

$$$$
12_
XXILIB    08252103493D 0   0.00000     0.00000

 36 38  0     1  0            999 V2000
  -10.5377    4.9027   -0.0994 O   0  0  0  0  0  2           0  0  0
  -10.1075    0.8550    2.2514 O   0  0  0  0  0  2           0  0  0
   -7.0238    0.2097    2.6640 O   0  0  0  0  0  2           0  0  0
   -7.5026    4.0631    0.4161 N   0  0  0  0  0  3           0  0  0
   -6.5319    3.2492    0.8967 N   0  0  0  0  0  3           0  0  0
  -10.7745    2.8426    1.0944 N   0  0  2  0  0  3           0  0  0
   -8.7333    3.5879    0.6817 C   0  0  0  0  0  4           0  0  0
   -7.1973    2.2292    1.4851 C   0  0  0  0  0  4           0  0  0
  -12.1869    2.7223    1.1480 C   0  0  0  0  0  4           0  0  0
   -8.5794    2.4204    1.3619 C   0  0  0  0  0  4           0  0  0
  -15.0051    2.4821    1.2514 C   0  0  0  0  0  4           0  0  0
  -12.8151    2.0673    2.2186 C   0  0  0  0  0  4           0  0  0
  -12.9931    3.2603    0.1334 C   0  0  0  0  0  4           0  0  0
  -14.2090    1.9533    2.2709 C   0  0  0  0  0  4           0  0  0
  -14.3862    3.1460    0.1884 C   0  0  0  0  0  4           0  0  0
  -10.1029    3.9184    0.4759 C   0  0  0  0  0  4           0  0  0
   -9.8857    1.8950    1.6536 C   0  0  0  0  0  4           0  0  0
   -6.4504    1.1526    2.1195 C   0  0  0  0  0  4           0  0  0
  -16.4994    2.3930    1.3210 C   0  0  0  0  0  4           0  0  0
   -4.9386    1.2059    2.0888 C   0  0  0  0  0  4           0  0  0
   -4.3108    0.0000    2.7850 C   0  0  0  0  0  4           0  0  0
   -2.7833    0.0000    2.7850 C   0  0  0  0  0  4           0  0  0
   -2.1554    0.0000    1.3925 C   0  0  0  0  0  4           0  0  0
   -0.6279    0.0000    1.3925 C   0  0  0  0  0  4           0  0  0
    0.0000    0.0000    0.0000 C   0  0  0  0  0  4           0  0  0
    1.5275   -0.0000   -0.0000 C   0  0  0  0  0  4           0  0  0
    2.1554    0.0000   -1.3925 C   0  0  0  0  0  4           0  0  0
    3.6829    0.0000   -1.3925 C   0  0  0  0  0  4           0  0  0
    4.3108    0.0000   -2.7850 C   0  0  0  0  0  4           0  0  0
    5.8383    0.0000   -2.7850 C   0  0  0  0  0  4           0  0  0
    6.4661    0.0000   -4.1775 C   0  0  0  0  0  4           0  0  0
    7.9937    0.0000   -4.1775 C   0  0  0  0  0  4           0  0  0
    8.6215    0.0000   -5.5700 C   0  0  0  0  0  4           0  0  0
   10.1490    0.0000   -5.5700 C   0  0  0  0  0  4           0  0  0
   10.7769    0.0000   -6.9625 C   0  0  0  0  0  4           0  0  0
   12.2949    0.0000   -6.8879 C   0  0  0  0  0  4           0  0  0
  1 16  2  0     0  0
  2 17  2  0     0  0
  3 18  2  0     0  0
  4  5  1  0     0  0
  4  7  1  0     0  0
  5  8  2  0     0  0
  6  9  1  0     0  0
  6 16  1  0     0  0
  6 17  1  0     0  0
  7 10  2  0     0  0
  7 16  1  0     0  0
  8 10  1  0     0  0
  8 18  1  0     0  0
  9 12  2  0     0  0
  9 13  1  0     0  0
 10 17  1  0     0  0
 11 14  2  0     0  0
 11 15  1  0     0  0
 11 19  1  0     0  0
 12 14  1  0     0  0
 13 15  2  0     0  0
 18 20  1  0     0  0
 20 21  1  0     0  0
 21 22  1  0     0  0
 22 23  1  0     0  0
 23 24  1  0     0  0
 24 25  1  0     0  0
 25 26  1  0     0  0
 26 27  1  0     0  0
 27 28  1  0     0  0
 28 29  1  0     0  0
 29 30  1  0     0  0
 30 31  1  0     0  0
 31 32  1  0     0  0
 32 33  1  0     0  0
 33 34  1  0     0  0
 34 35  1  0     0  0
 35 36  1  0     0  0
M  END
> <standard_type>
IC50

> <# Confs.>
25

> <canonical_smiles>
O=C1C2=C(C(C(CCCCCCCCCCCCCCCCC)=O)=NN2)C(N1C3=CC=C(C)C=C3)=O

> <standard_relation>
=

> <predicted_activity_value>
5.356547323513812

> <actual_activity_value>
5.443697499232712

> <Compound>
12

> <publication_ID>
nan

> <standard_units>
nM

> hash
5256564608547534824

$$$$
12_
XXILIB    08252103493D 0   0.00000     0.00000

 36 38  0     1  0            999 V2000
   -4.0315    4.0740   11.4067 O   0  0  0  0  0  2           0  0  0
   -1.5161    5.4065    7.6660 O   0  0  0  0  0  2           0  0  0
   -1.8737    3.2617    5.3493 O   0  0  0  0  0  2           0  0  0
   -4.2473    2.0416    8.9559 N   0  0  0  0  0  3           0  0  0
   -3.9627    1.6164    7.7015 N   0  0  0  0  0  3           0  0  0
   -2.6379    5.1104    9.7608 N   0  0  2  0  0  3           0  0  0
   -3.6320    3.2032    9.2440 C   0  0  0  0  0  4           0  0  0
   -3.1365    2.5607    7.1965 C   0  0  0  0  0  4           0  0  0
   -2.2051    6.2651   10.4618 C   0  0  0  0  0  4           0  0  0
   -2.9146    3.5653    8.1469 C   0  0  0  0  0  4           0  0  0
   -1.3402    8.5672   11.8628 C   0  0  0  0  0  4           0  0  0
   -1.9040    7.4534    9.7783 C   0  0  0  0  0  4           0  0  0
   -2.0720    6.2504   11.8585 C   0  0  0  0  0  4           0  0  0
   -1.4808    8.5925   10.4727 C   0  0  0  0  0  4           0  0  0
   -1.6500    7.3905   12.5505 C   0  0  0  0  0  4           0  0  0
   -3.5027    4.1395   10.3089 C   0  0  0  0  0  4           0  0  0
   -2.2469    4.8055    8.4361 C   0  0  0  0  0  4           0  0  0
   -2.6271    2.4213    5.8398 C   0  0  0  0  0  4           0  0  0
   -0.9212    9.7947   12.6135 C   0  0  0  0  0  4           0  0  0
   -3.0345    1.2059    5.0361 C   0  0  0  0  0  4           0  0  0
   -2.4066    1.2059    3.6436 C   0  0  0  0  0  4           0  0  0
   -2.7833    0.0000    2.7850 C   0  0  0  0  0  4           0  0  0
   -2.1554    0.0000    1.3925 C   0  0  0  0  0  4           0  0  0
   -0.6279    0.0000    1.3925 C   0  0  0  0  0  4           0  0  0
    0.0000    0.0000    0.0000 C   0  0  0  0  0  4           0  0  0
    1.5275   -0.0000   -0.0000 C   0  0  0  0  0  4           0  0  0
    2.1554    0.0000   -1.3925 C   0  0  0  0  0  4           0  0  0
    3.6829    0.0000   -1.3925 C   0  0  0  0  0  4           0  0  0
    4.3108    0.0000   -2.7850 C   0  0  0  0  0  4           0  0  0
    5.8383    0.0000   -2.7850 C   0  0  0  0  0  4           0  0  0
    6.4661    0.0000   -4.1775 C   0  0  0  0  0  4           0  0  0
    7.9937    0.0000   -4.1775 C   0  0  0  0  0  4           0  0  0
    8.6215    0.0000   -5.5700 C   0  0  0  0  0  4           0  0  0
   10.1490    0.0000   -5.5700 C   0  0  0  0  0  4           0  0  0
   10.7769    0.0000   -6.9625 C   0  0  0  0  0  4           0  0  0
   12.2949    0.0000   -6.8879 C   0  0  0  0  0  4           0  0  0
  1 16  2  0     0  0
  2 17  2  0     0  0
  3 18  2  0     0  0
  4  5  1  0     0  0
  4  7  1  0     0  0
  5  8  2  0     0  0
  6  9  1  0     0  0
  6 16  1  0     0  0
  6 17  1  0     0  0
  7 10  2  0     0  0
  7 16  1  0     0  0
  8 10  1  0     0  0
  8 18  1  0     0  0
  9 12  2  0     0  0
  9 13  1  0     0  0
 10 17  1  0     0  0
 11 14  2  0     0  0
 11 15  1  0     0  0
 11 19  1  0     0  0
 12 14  1  0     0  0
 13 15  2  0     0  0
 18 20  1  0     0  0
 20 21  1  0     0  0
 21 22  1  0     0  0
 22 23  1  0     0  0
 23 24  1  0     0  0
 24 25  1  0     0  0
 25 26  1  0     0  0
 26 27  1  0     0  0
 27 28  1  0     0  0
 28 29  1  0     0  0
 29 30  1  0     0  0
 30 31  1  0     0  0
 31 32  1  0     0  0
 32 33  1  0     0  0
 33 34  1  0     0  0
 34 35  1  0     0  0
 35 36  1  0     0  0
M  END
> <standard_type>
IC50

> <# Confs.>
25

> <canonical_smiles>
O=C1C2=C(C(C(CCCCCCCCCCCCCCCCC)=O)=NN2)C(N1C3=CC=C(C)C=C3)=O

> <standard_relation>
=

> <predicted_activity_value>
5.356547323513812

> <actual_activity_value>
5.443697499232712

> <Compound>
12

> <publication_ID>
nan

> <standard_units>
nM

> hash
5256564608547534824

$$$$
12_
XXILIB    08252103493D 0   0.00000     0.00000

 36 38  0     1  0            999 V2000
   -4.1051   -4.1205   11.3735 O   0  0  0  0  0  2           0  0  0
   -1.5708   -5.4411    7.6414 O   0  0  0  0  0  2           0  0  0
   -1.8737   -3.2617    5.3493 O   0  0  0  0  0  2           0  0  0
   -4.2789   -2.0616    8.9417 N   0  0  0  0  0  3           0  0  0
   -3.9797   -1.6271    7.6938 N   0  0  0  0  0  3           0  0  0
   -2.7054   -5.1531    9.7304 N   0  0  2  0  0  3           0  0  0
   -3.6755   -3.2308    9.2244 C   0  0  0  0  0  4           0  0  0
   -3.1540   -2.5718    7.1886 C   0  0  0  0  0  4           0  0  0
   -2.2944   -6.3217   10.4215 C   0  0  0  0  0  4           0  0  0
   -2.9498   -3.5876    8.1311 C   0  0  0  0  0  4           0  0  0
   -1.4777   -8.6543   11.8008 C   0  0  0  0  0  4           0  0  0
   -1.0464   -6.9103   10.1649 C   0  0  0  0  0  4           0  0  0
   -3.1239   -6.9166   11.3842 C   0  0  0  0  0  4           0  0  0
   -0.6418   -8.0611   10.8510 C   0  0  0  0  0  4           0  0  0
   -2.7169   -8.0662   12.0695 C   0  0  0  0  0  4           0  0  0
   -3.5667   -4.1800   10.2800 C   0  0  0  0  0  4           0  0  0
   -2.2979   -4.8379    8.4131 C   0  0  0  0  0  4           0  0  0
   -2.6271   -2.4213    5.8398 C   0  0  0  0  0  4           0  0  0
   -1.0338   -9.8661   12.5627 C   0  0  0  0  0  4           0  0  0
   -3.0345   -1.2059    5.0361 C   0  0  0  0  0  4           0  0  0
   -2.4066   -1.2059    3.6436 C   0  0  0  0  0  4           0  0  0
   -2.7833    0.0000    2.7850 C   0  0  0  0  0  4           0  0  0
   -2.1554   -0.0000    1.3925 C   0  0  0  0  0  4           0  0  0
   -0.6279    0.0000    1.3925 C   0  0  0  0  0  4           0  0  0
    0.0000    0.0000    0.0000 C   0  0  0  0  0  4           0  0  0
    1.5275   -0.0000   -0.0000 C   0  0  0  0  0  4           0  0  0
    2.1554    0.0000   -1.3925 C   0  0  0  0  0  4           0  0  0
    3.6829    0.0000   -1.3925 C   0  0  0  0  0  4           0  0  0
    4.3108    0.0000   -2.7850 C   0  0  0  0  0  4           0  0  0
    5.8383    0.0000   -2.7850 C   0  0  0  0  0  4           0  0  0
    6.4661    0.0000   -4.1775 C   0  0  0  0  0  4           0  0  0
    7.9937    0.0000   -4.1775 C   0  0  0  0  0  4           0  0  0
    8.6215    0.0000   -5.5700 C   0  0  0  0  0  4           0  0  0
   10.1490    0.0000   -5.5700 C   0  0  0  0  0  4           0  0  0
   10.7769    0.0000   -6.9625 C   0  0  0  0  0  4           0  0  0
   12.2949    0.0000   -6.8879 C   0  0  0  0  0  4           0  0  0
  1 16  2  0     0  0
  2 17  2  0     0  0
  3 18  2  0     0  0
  4  5  1  0     0  0
  4  7  1  0     0  0
  5  8  2  0     0  0
  6  9  1  0     0  0
  6 16  1  0     0  0
  6 17  1  0     0  0
  7 10  2  0     0  0
  7 16  1  0     0  0
  8 10  1  0     0  0
  8 18  1  0     0  0
  9 12  2  0     0  0
  9 13  1  0     0  0
 10 17  1  0     0  0
 11 14  2  0     0  0
 11 15  1  0     0  0
 11 19  1  0     0  0
 12 14  1  0     0  0
 13 15  2  0     0  0
 18 20  1  0     0  0
 20 21  1  0     0  0
 21 22  1  0     0  0
 22 23  1  0     0  0
 23 24  1  0     0  0
 24 25  1  0     0  0
 25 26  1  0     0  0
 26 27  1  0     0  0
 27 28  1  0     0  0
 28 29  1  0     0  0
 29 30  1  0     0  0
 30 31  1  0     0  0
 31 32  1  0     0  0
 32 33  1  0     0  0
 33 34  1  0     0  0
 34 35  1  0     0  0
 35 36  1  0     0  0
M  END
> <standard_type>
IC50

> <# Confs.>
25

> <canonical_smiles>
O=C1C2=C(C(C(CCCCCCCCCCCCCCCCC)=O)=NN2)C(N1C3=CC=C(C)C=C3)=O

> <standard_relation>
=

> <predicted_activity_value>
5.356547323513812

> <actual_activity_value>
5.443697499232712

> <Compound>
12

> <publication_ID>
nan

> <standard_units>
nM

> hash
5256564608547534824

$$$$
12_
XXILIB    08252103493D 0   0.00000     0.00000

 36 38  0     1  0            999 V2000
   -2.1274    5.2799   12.2652 O   0  0  0  0  0  2           0  0  0
    0.3880    6.6124    8.5246 O   0  0  0  0  0  2           0  0  0
    0.0304    4.4676    6.2078 O   0  0  0  0  0  2           0  0  0
   -2.3432    3.2476    9.8145 N   0  0  0  0  0  3           0  0  0
   -2.0586    2.8223    8.5600 N   0  0  0  0  0  3           0  0  0
   -0.7337    6.3163   10.6194 N   0  0  2  0  0  3           0  0  0
   -1.7278    4.4092   10.1026 C   0  0  0  0  0  4           0  0  0
   -1.2323    3.7667    8.0550 C   0  0  0  0  0  4           0  0  0
   -0.3010    7.4711   11.3203 C   0  0  0  0  0  4           0  0  0
   -1.0105    4.7713    9.0055 C   0  0  0  0  0  4           0  0  0
    0.5640    9.7732   12.7214 C   0  0  0  0  0  4           0  0  0
    0.0002    8.6594   10.6368 C   0  0  0  0  0  4           0  0  0
   -0.1679    7.4563   12.7171 C   0  0  0  0  0  4           0  0  0
    0.4233    9.7984   11.3313 C   0  0  0  0  0  4           0  0  0
    0.2542    8.5964   13.4091 C   0  0  0  0  0  4           0  0  0
   -1.5985    5.3454   11.1675 C   0  0  0  0  0  4           0  0  0
   -0.3427    6.0115    9.2947 C   0  0  0  0  0  4           0  0  0
   -0.7230    3.6273    6.6984 C   0  0  0  0  0  4           0  0  0
    0.9829   11.0007   13.4721 C   0  0  0  0  0  4           0  0  0
   -1.1303    2.4119    5.8946 C   0  0  0  0  0  4           0  0  0
   -0.5025    2.4119    4.5021 C   0  0  0  0  0  4           0  0  0
   -0.8791    1.2059    3.6436 C   0  0  0  0  0  4           0  0  0
   -0.2512    1.2059    2.2511 C   0  0  0  0  0  4           0  0  0
   -0.6279   -0.0000    1.3925 C   0  0  0  0  0  4           0  0  0
    0.0000    0.0000    0.0000 C   0  0  0  0  0  4           0  0  0
    1.5275   -0.0000   -0.0000 C   0  0  0  0  0  4           0  0  0
    2.1554    0.0000   -1.3925 C   0  0  0  0  0  4           0  0  0
    3.6829    0.0000   -1.3925 C   0  0  0  0  0  4           0  0  0
    4.3108    0.0000   -2.7850 C   0  0  0  0  0  4           0  0  0
    5.8383    0.0000   -2.7850 C   0  0  0  0  0  4           0  0  0
    6.4661    0.0000   -4.1775 C   0  0  0  0  0  4           0  0  0
    7.9937    0.0000   -4.1775 C   0  0  0  0  0  4           0  0  0
    8.6215    0.0000   -5.5700 C   0  0  0  0  0  4           0  0  0
   10.1490    0.0000   -5.5700 C   0  0  0  0  0  4           0  0  0
   10.7769    0.0000   -6.9625 C   0  0  0  0  0  4           0  0  0
   12.2949    0.0000   -6.8879 C   0  0  0  0  0  4           0  0  0
  1 16  2  0     0  0
  2 17  2  0     0  0
  3 18  2  0     0  0
  4  5  1  0     0  0
  4  7  1  0     0  0
  5  8  2  0     0  0
  6  9  1  0     0  0
  6 16  1  0     0  0
  6 17  1  0     0  0
  7 10  2  0     0  0
  7 16  1  0     0  0
  8 10  1  0     0  0
  8 18  1  0     0  0
  9 12  2  0     0  0
  9 13  1  0     0  0
 10 17  1  0     0  0
 11 14  2  0     0  0
 11 15  1  0     0  0
 11 19  1  0     0  0
 12 14  1  0     0  0
 13 15  2  0     0  0
 18 20  1  0     0  0
 20 21  1  0     0  0
 21 22  1  0     0  0
 22 23  1  0     0  0
 23 24  1  0     0  0
 24 25  1  0     0  0
 25 26  1  0     0  0
 26 27  1  0     0  0
 27 28  1  0     0  0
 28 29  1  0     0  0
 29 30  1  0     0  0
 30 31  1  0     0  0
 31 32  1  0     0  0
 32 33  1  0     0  0
 33 34  1  0     0  0
 34 35  1  0     0  0
 35 36  1  0     0  0
M  END
> <standard_type>
IC50

> <# Confs.>
25

> <canonical_smiles>
O=C1C2=C(C(C(CCCCCCCCCCCCCCCCC)=O)=NN2)C(N1C3=CC=C(C)C=C3)=O

> <standard_relation>
=

> <predicted_activity_value>
5.356547323513812

> <actual_activity_value>
5.443697499232712

> <Compound>
12

> <publication_ID>
nan

> <standard_units>
nM

> hash
5256564608547534824

$$$$
12_
XXILIB    08252103493D 0   0.00000     0.00000

 36 38  0     1  0            999 V2000
  -10.5377    0.0466    8.4731 O   0  0  0  0  0  2           0  0  0
  -10.1075    0.0347    3.7923 O   0  0  0  0  0  2           0  0  0
   -7.0238   -0.0000    3.0271 O   0  0  0  0  0  2           0  0  0
   -7.5026    0.0200    7.4882 N   0  0  0  0  0  3           0  0  0
   -6.5319    0.0108    6.5430 N   0  0  0  0  0  3           0  0  0
  -10.7745    0.0428    6.0921 N   0  0  2  0  0  3           0  0  0
   -8.7333    0.0276    6.9439 C   0  0  0  0  0  4           0  0  0
   -7.1973    0.0111    5.3655 C   0  0  0  0  0  4           0  0  0
  -12.1869    0.0566    5.9611 C   0  0  0  0  0  4           0  0  0
   -8.5794    0.0223    5.5927 C   0  0  0  0  0  4           0  0  0
  -15.0051    0.0871    5.7014 C   0  0  0  0  0  4           0  0  0
  -12.8151   -0.5431    4.8585 C   0  0  0  0  0  4           0  0  0
  -12.9931    0.6662    6.9343 C   0  0  0  0  0  4           0  0  0
  -14.2090   -0.5314    4.7337 C   0  0  0  0  0  4           0  0  0
  -14.3862    0.6757    6.8079 C   0  0  0  0  0  4           0  0  0
  -10.1029    0.0405    7.3329 C   0  0  0  0  0  4           0  0  0
   -9.8857    0.0323    4.9918 C   0  0  0  0  0  4           0  0  0
   -6.4504   -0.0000    4.1160 C   0  0  0  0  0  4           0  0  0
  -16.4994    0.0713    5.5894 C   0  0  0  0  0  4           0  0  0
   -4.9386    0.0000    4.1775 C   0  0  0  0  0  4           0  0  0
   -4.3108    0.0000    2.7850 C   0  0  0  0  0  4           0  0  0
   -2.7833    0.0000    2.7850 C   0  0  0  0  0  4           0  0  0
   -2.1554    0.0000    1.3925 C   0  0  0  0  0  4           0  0  0
   -0.6279    0.0000    1.3925 C   0  0  0  0  0  4           0  0  0
    0.0000   -0.0000    0.0000 C   0  0  0  0  0  4           0  0  0
    1.5275    0.0000    0.0000 C   0  0  0  0  0  4           0  0  0
    2.1554   -1.2059    0.6963 C   0  0  0  0  0  4           0  0  0
    3.6829   -1.2059    0.6963 C   0  0  0  0  0  4           0  0  0
    4.3108   -2.4119    1.3925 C   0  0  0  0  0  4           0  0  0
    5.8383   -2.4119    1.3925 C   0  0  0  0  0  4           0  0  0
    6.4661   -3.6178    2.0888 C   0  0  0  0  0  4           0  0  0
    7.9937   -3.6178    2.0888 C   0  0  0  0  0  4           0  0  0
    8.6215   -4.8238    2.7850 C   0  0  0  0  0  4           0  0  0
   10.1490   -4.8238    2.7850 C   0  0  0  0  0  4           0  0  0
   10.7769   -6.0297    3.4813 C   0  0  0  0  0  4           0  0  0
   12.2949   -5.9651    3.4440 C   0  0  0  0  0  4           0  0  0
  1 16  2  0     0  0
  2 17  2  0     0  0
  3 18  2  0     0  0
  4  5  1  0     0  0
  4  7  1  0     0  0
  5  8  2  0     0  0
  6  9  1  0     0  0
  6 16  1  0     0  0
  6 17  1  0     0  0
  7 10  2  0     0  0
  7 16  1  0     0  0
  8 10  1  0     0  0
  8 18  1  0     0  0
  9 12  2  0     0  0
  9 13  1  0     0  0
 10 17  1  0     0  0
 11 14  2  0     0  0
 11 15  1  0     0  0
 11 19  1  0     0  0
 12 14  1  0     0  0
 13 15  2  0     0  0
 18 20  1  0     0  0
 20 21  1  0     0  0
 21 22  1  0     0  0
 22 23  1  0     0  0
 23 24  1  0     0  0
 24 25  1  0     0  0
 25 26  1  0     0  0
 26 27  1  0     0  0
 27 28  1  0     0  0
 28 29  1  0     0  0
 29 30  1  0     0  0
 30 31  1  0     0  0
 31 32  1  0     0  0
 32 33  1  0     0  0
 33 34  1  0     0  0
 34 35  1  0     0  0
 35 36  1  0     0  0
M  END
> <standard_type>
IC50

> <# Confs.>
25

> <canonical_smiles>
O=C1C2=C(C(C(CCCCCCCCCCCCCCCCC)=O)=NN2)C(N1C3=CC=C(C)C=C3)=O

> <standard_relation>
=

> <predicted_activity_value>
5.356547323513812

> <actual_activity_value>
5.443697499232712

> <Compound>
12

> <publication_ID>
nan

> <standard_units>
nM

> hash
5256564608547534824

$$$$
12_
XXILIB    08252103493D 0   0.00000     0.00000

 36 38  0     1  0            999 V2000
  -10.5377    0.0466    8.4731 O   0  0  0  0  0  2           0  0  0
  -10.1075    0.0347    3.7923 O   0  0  0  0  0  2           0  0  0
   -7.0238   -0.0000    3.0271 O   0  0  0  0  0  2           0  0  0
   -7.5026    0.0200    7.4882 N   0  0  0  0  0  3           0  0  0
   -6.5319    0.0108    6.5430 N   0  0  0  0  0  3           0  0  0
  -10.7745    0.0428    6.0921 N   0  0  2  0  0  3           0  0  0
   -8.7333    0.0276    6.9439 C   0  0  0  0  0  4           0  0  0
   -7.1973    0.0111    5.3655 C   0  0  0  0  0  4           0  0  0
  -12.1869    0.0566    5.9611 C   0  0  0  0  0  4           0  0  0
   -8.5794    0.0223    5.5927 C   0  0  0  0  0  4           0  0  0
  -15.0051    0.0871    5.7014 C   0  0  0  0  0  4           0  0  0
  -12.8151   -0.5431    4.8585 C   0  0  0  0  0  4           0  0  0
  -12.9931    0.6662    6.9343 C   0  0  0  0  0  4           0  0  0
  -14.2090   -0.5314    4.7337 C   0  0  0  0  0  4           0  0  0
  -14.3862    0.6757    6.8079 C   0  0  0  0  0  4           0  0  0
  -10.1029    0.0405    7.3329 C   0  0  0  0  0  4           0  0  0
   -9.8857    0.0323    4.9918 C   0  0  0  0  0  4           0  0  0
   -6.4504   -0.0000    4.1160 C   0  0  0  0  0  4           0  0  0
  -16.4994    0.0713    5.5894 C   0  0  0  0  0  4           0  0  0
   -4.9386    0.0000    4.1775 C   0  0  0  0  0  4           0  0  0
   -4.3108    0.0000    2.7850 C   0  0  0  0  0  4           0  0  0
   -2.7833    0.0000    2.7850 C   0  0  0  0  0  4           0  0  0
   -2.1554    0.0000    1.3925 C   0  0  0  0  0  4           0  0  0
   -0.6279    0.0000    1.3925 C   0  0  0  0  0  4           0  0  0
    0.0000   -0.0000    0.0000 C   0  0  0  0  0  4           0  0  0
    1.5275    0.0000    0.0000 C   0  0  0  0  0  4           0  0  0
    2.1554    0.0000   -1.3925 C   0  0  0  0  0  4           0  0  0
    1.7787    1.2059   -2.2511 C   0  0  0  0  0  4           0  0  0
    2.4066    1.2059   -3.6436 C   0  0  0  0  0  4           0  0  0
    2.0300    2.4119   -4.5021 C   0  0  0  0  0  4           0  0  0
    2.6578    2.4119   -5.8946 C   0  0  0  0  0  4           0  0  0
    2.2812    3.6178   -6.7532 C   0  0  0  0  0  4           0  0  0
    2.9091    3.6178   -8.1457 C   0  0  0  0  0  4           0  0  0
    2.5324    4.8238   -9.0043 C   0  0  0  0  0  4           0  0  0
    3.1603    4.8238  -10.3968 C   0  0  0  0  0  4           0  0  0
    2.7441    6.0488  -11.1943 C   0  0  0  0  0  4           0  0  0
  1 16  2  0     0  0
  2 17  2  0     0  0
  3 18  2  0     0  0
  4  5  1  0     0  0
  4  7  1  0     0  0
  5  8  2  0     0  0
  6  9  1  0     0  0
  6 16  1  0     0  0
  6 17  1  0     0  0
  7 10  2  0     0  0
  7 16  1  0     0  0
  8 10  1  0     0  0
  8 18  1  0     0  0
  9 12  2  0     0  0
  9 13  1  0     0  0
 10 17  1  0     0  0
 11 14  2  0     0  0
 11 15  1  0     0  0
 11 19  1  0     0  0
 12 14  1  0     0  0
 13 15  2  0     0  0
 18 20  1  0     0  0
 20 21  1  0     0  0
 21 22  1  0     0  0
 22 23  1  0     0  0
 23 24  1  0     0  0
 24 25  1  0     0  0
 25 26  1  0     0  0
 26 27  1  0     0  0
 27 28  1  0     0  0
 28 29  1  0     0  0
 29 30  1  0     0  0
 30 31  1  0     0  0
 31 32  1  0     0  0
 32 33  1  0     0  0
 33 34  1  0     0  0
 34 35  1  0     0  0
 35 36  1  0     0  0
M  END
> <standard_type>
IC50

> <# Confs.>
25

> <canonical_smiles>
O=C1C2=C(C(C(CCCCCCCCCCCCCCCCC)=O)=NN2)C(N1C3=CC=C(C)C=C3)=O

> <standard_relation>
=

> <predicted_activity_value>
5.356547323513812

> <actual_activity_value>
5.443697499232712

> <Compound>
12

> <publication_ID>
nan

> <standard_units>
nM

> hash
5256564608547534824

$$$$
12_
XXILIB    08252103493D 0   0.00000     0.00000

 36 38  0     1  0            999 V2000
  -10.5377    0.0466    8.4731 O   0  0  0  0  0  2           0  0  0
  -10.1075    0.0347    3.7923 O   0  0  0  0  0  2           0  0  0
   -7.0238   -0.0000    3.0271 O   0  0  0  0  0  2           0  0  0
   -7.5026    0.0200    7.4882 N   0  0  0  0  0  3           0  0  0
   -6.5319    0.0108    6.5430 N   0  0  0  0  0  3           0  0  0
  -10.7745    0.0428    6.0921 N   0  0  2  0  0  3           0  0  0
   -8.7333    0.0276    6.9439 C   0  0  0  0  0  4           0  0  0
   -7.1973    0.0111    5.3655 C   0  0  0  0  0  4           0  0  0
  -12.1869    0.0566    5.9611 C   0  0  0  0  0  4           0  0  0
   -8.5794    0.0223    5.5927 C   0  0  0  0  0  4           0  0  0
  -15.0051    0.0871    5.7014 C   0  0  0  0  0  4           0  0  0
  -12.8151   -0.5431    4.8585 C   0  0  0  0  0  4           0  0  0
  -12.9931    0.6662    6.9343 C   0  0  0  0  0  4           0  0  0
  -14.2090   -0.5314    4.7337 C   0  0  0  0  0  4           0  0  0
  -14.3862    0.6757    6.8079 C   0  0  0  0  0  4           0  0  0
  -10.1029    0.0405    7.3329 C   0  0  0  0  0  4           0  0  0
   -9.8857    0.0323    4.9918 C   0  0  0  0  0  4           0  0  0
   -6.4504   -0.0000    4.1160 C   0  0  0  0  0  4           0  0  0
  -16.4994    0.0713    5.5894 C   0  0  0  0  0  4           0  0  0
   -4.9386    0.0000    4.1775 C   0  0  0  0  0  4           0  0  0
   -4.3108    0.0000    2.7850 C   0  0  0  0  0  4           0  0  0
   -2.7833    0.0000    2.7850 C   0  0  0  0  0  4           0  0  0
   -2.1554    0.0000    1.3925 C   0  0  0  0  0  4           0  0  0
   -0.6279    0.0000    1.3925 C   0  0  0  0  0  4           0  0  0
    0.0000   -0.0000    0.0000 C   0  0  0  0  0  4           0  0  0
    1.5275    0.0000   -0.0000 C   0  0  0  0  0  4           0  0  0
    2.1554    0.0000   -1.3925 C   0  0  0  0  0  4           0  0  0
    3.6829    0.0000   -1.3925 C   0  0  0  0  0  4           0  0  0
    4.3108   -1.2059   -0.6963 C   0  0  0  0  0  4           0  0  0
    5.8383   -1.2059   -0.6963 C   0  0  0  0  0  4           0  0  0
    6.4661   -2.4119    0.0000 C   0  0  0  0  0  4           0  0  0
    7.9937   -2.4119    0.0000 C   0  0  0  0  0  4           0  0  0
    8.6215   -3.6178    0.6963 C   0  0  0  0  0  4           0  0  0
   10.1490   -3.6178    0.6963 C   0  0  0  0  0  4           0  0  0
   10.7769   -4.8238    1.3925 C   0  0  0  0  0  4           0  0  0
   12.2949   -4.7592    1.3552 C   0  0  0  0  0  4           0  0  0
  1 16  2  0     0  0
  2 17  2  0     0  0
  3 18  2  0     0  0
  4  5  1  0     0  0
  4  7  1  0     0  0
  5  8  2  0     0  0
  6  9  1  0     0  0
  6 16  1  0     0  0
  6 17  1  0     0  0
  7 10  2  0     0  0
  7 16  1  0     0  0
  8 10  1  0     0  0
  8 18  1  0     0  0
  9 12  2  0     0  0
  9 13  1  0     0  0
 10 17  1  0     0  0
 11 14  2  0     0  0
 11 15  1  0     0  0
 11 19  1  0     0  0
 12 14  1  0     0  0
 13 15  2  0     0  0
 18 20  1  0     0  0
 20 21  1  0     0  0
 21 22  1  0     0  0
 22 23  1  0     0  0
 23 24  1  0     0  0
 24 25  1  0     0  0
 25 26  1  0     0  0
 26 27  1  0     0  0
 27 28  1  0     0  0
 28 29  1  0     0  0
 29 30  1  0     0  0
 30 31  1  0     0  0
 31 32  1  0     0  0
 32 33  1  0     0  0
 33 34  1  0     0  0
 34 35  1  0     0  0
 35 36  1  0     0  0
M  END
> <standard_type>
IC50

> <# Confs.>
25

> <canonical_smiles>
O=C1C2=C(C(C(CCCCCCCCCCCCCCCCC)=O)=NN2)C(N1C3=CC=C(C)C=C3)=O

> <standard_relation>
=

> <predicted_activity_value>
5.356547323513812

> <actual_activity_value>
5.443697499232712

> <Compound>
12

> <publication_ID>
nan

> <standard_units>
nM

> hash
5256564608547534824

$$$$
12_
XXILIB    08252103493D 0   0.00000     0.00000

 36 38  0     1  0            999 V2000
  -10.5377    0.0466    8.4731 O   0  0  0  0  0  2           0  0  0
  -10.1075    0.0347    3.7923 O   0  0  0  0  0  2           0  0  0
   -7.0238   -0.0000    3.0271 O   0  0  0  0  0  2           0  0  0
   -7.5026    0.0200    7.4882 N   0  0  0  0  0  3           0  0  0
   -6.5319    0.0108    6.5430 N   0  0  0  0  0  3           0  0  0
  -10.7745    0.0428    6.0921 N   0  0  2  0  0  3           0  0  0
   -8.7333    0.0276    6.9439 C   0  0  0  0  0  4           0  0  0
   -7.1973    0.0111    5.3655 C   0  0  0  0  0  4           0  0  0
  -12.1869    0.0566    5.9611 C   0  0  0  0  0  4           0  0  0
   -8.5794    0.0223    5.5927 C   0  0  0  0  0  4           0  0  0
  -15.0051    0.0871    5.7014 C   0  0  0  0  0  4           0  0  0
  -12.8151   -0.5431    4.8585 C   0  0  0  0  0  4           0  0  0
  -12.9931    0.6662    6.9343 C   0  0  0  0  0  4           0  0  0
  -14.2090   -0.5314    4.7337 C   0  0  0  0  0  4           0  0  0
  -14.3862    0.6757    6.8079 C   0  0  0  0  0  4           0  0  0
  -10.1029    0.0405    7.3329 C   0  0  0  0  0  4           0  0  0
   -9.8857    0.0323    4.9918 C   0  0  0  0  0  4           0  0  0
   -6.4504   -0.0000    4.1160 C   0  0  0  0  0  4           0  0  0
  -16.4994    0.0713    5.5894 C   0  0  0  0  0  4           0  0  0
   -4.9386    0.0000    4.1775 C   0  0  0  0  0  4           0  0  0
   -4.3108    0.0000    2.7850 C   0  0  0  0  0  4           0  0  0
   -2.7833    0.0000    2.7850 C   0  0  0  0  0  4           0  0  0
   -2.1554    0.0000    1.3925 C   0  0  0  0  0  4           0  0  0
   -0.6279    0.0000    1.3925 C   0  0  0  0  0  4           0  0  0
    0.0000   -0.0000    0.0000 C   0  0  0  0  0  4           0  0  0
    1.5275   -0.0000    0.0000 C   0  0  0  0  0  4           0  0  0
    2.1554    0.0000   -1.3925 C   0  0  0  0  0  4           0  0  0
    3.6829   -0.0000   -1.3925 C   0  0  0  0  0  4           0  0  0
    4.3108    0.0000   -2.7850 C   0  0  0  0  0  4           0  0  0
    3.9341    1.2059   -3.6436 C   0  0  0  0  0  4           0  0  0
    4.5620    1.2059   -5.0361 C   0  0  0  0  0  4           0  0  0
    4.1854    2.4119   -5.8946 C   0  0  0  0  0  4           0  0  0
    4.8132    2.4119   -7.2872 C   0  0  0  0  0  4           0  0  0
    4.4366    3.6178   -8.1457 C   0  0  0  0  0  4           0  0  0
    5.0645    3.6178   -9.5382 C   0  0  0  0  0  4           0  0  0
    4.6482    4.8429  -10.3358 C   0  0  0  0  0  4           0  0  0
  1 16  2  0     0  0
  2 17  2  0     0  0
  3 18  2  0     0  0
  4  5  1  0     0  0
  4  7  1  0     0  0
  5  8  2  0     0  0
  6  9  1  0     0  0
  6 16  1  0     0  0
  6 17  1  0     0  0
  7 10  2  0     0  0
  7 16  1  0     0  0
  8 10  1  0     0  0
  8 18  1  0     0  0
  9 12  2  0     0  0
  9 13  1  0     0  0
 10 17  1  0     0  0
 11 14  2  0     0  0
 11 15  1  0     0  0
 11 19  1  0     0  0
 12 14  1  0     0  0
 13 15  2  0     0  0
 18 20  1  0     0  0
 20 21  1  0     0  0
 21 22  1  0     0  0
 22 23  1  0     0  0
 23 24  1  0     0  0
 24 25  1  0     0  0
 25 26  1  0     0  0
 26 27  1  0     0  0
 27 28  1  0     0  0
 28 29  1  0     0  0
 29 30  1  0     0  0
 30 31  1  0     0  0
 31 32  1  0     0  0
 32 33  1  0     0  0
 33 34  1  0     0  0
 34 35  1  0     0  0
 35 36  1  0     0  0
M  END
> <standard_type>
IC50

> <# Confs.>
25

> <canonical_smiles>
O=C1C2=C(C(C(CCCCCCCCCCCCCCCCC)=O)=NN2)C(N1C3=CC=C(C)C=C3)=O

> <standard_relation>
=

> <predicted_activity_value>
5.356547323513812

> <actual_activity_value>
5.443697499232712

> <Compound>
12

> <publication_ID>
nan

> <standard_units>
nM

> hash
5256564608547534824

$$$$
12_
XXILIB    08252103493D 0   0.00000     0.00000

 36 38  0     1  0            999 V2000
  -10.5377    0.0466    8.4731 O   0  0  0  0  0  2           0  0  0
  -10.1075    0.0347    3.7923 O   0  0  0  0  0  2           0  0  0
   -7.0238   -0.0000    3.0271 O   0  0  0  0  0  2           0  0  0
   -7.5026    0.0200    7.4882 N   0  0  0  0  0  3           0  0  0
   -6.5319    0.0108    6.5430 N   0  0  0  0  0  3           0  0  0
  -10.7745    0.0428    6.0921 N   0  0  2  0  0  3           0  0  0
   -8.7333    0.0276    6.9439 C   0  0  0  0  0  4           0  0  0
   -7.1973    0.0111    5.3655 C   0  0  0  0  0  4           0  0  0
  -12.1869    0.0566    5.9611 C   0  0  0  0  0  4           0  0  0
   -8.5794    0.0223    5.5927 C   0  0  0  0  0  4           0  0  0
  -15.0051    0.0871    5.7014 C   0  0  0  0  0  4           0  0  0
  -12.8151   -0.5431    4.8585 C   0  0  0  0  0  4           0  0  0
  -12.9931    0.6662    6.9343 C   0  0  0  0  0  4           0  0  0
  -14.2090   -0.5314    4.7337 C   0  0  0  0  0  4           0  0  0
  -14.3862    0.6757    6.8079 C   0  0  0  0  0  4           0  0  0
  -10.1029    0.0405    7.3329 C   0  0  0  0  0  4           0  0  0
   -9.8857    0.0323    4.9918 C   0  0  0  0  0  4           0  0  0
   -6.4504   -0.0000    4.1160 C   0  0  0  0  0  4           0  0  0
  -16.4994    0.0713    5.5894 C   0  0  0  0  0  4           0  0  0
   -4.9386    0.0000    4.1775 C   0  0  0  0  0  4           0  0  0
   -4.3108    0.0000    2.7850 C   0  0  0  0  0  4           0  0  0
   -2.7833    0.0000    2.7850 C   0  0  0  0  0  4           0  0  0
   -2.1554    0.0000    1.3925 C   0  0  0  0  0  4           0  0  0
   -0.6279    0.0000    1.3925 C   0  0  0  0  0  4           0  0  0
    0.0000   -0.0000    0.0000 C   0  0  0  0  0  4           0  0  0
    1.5275    0.0000    0.0000 C   0  0  0  0  0  4           0  0  0
    2.1554    0.0000   -1.3925 C   0  0  0  0  0  4           0  0  0
    3.6829    0.0000   -1.3925 C   0  0  0  0  0  4           0  0  0
    4.3108    0.0000   -2.7850 C   0  0  0  0  0  4           0  0  0
    5.8383    0.0000   -2.7850 C   0  0  0  0  0  4           0  0  0
    6.4661   -1.2059   -2.0888 C   0  0  0  0  0  4           0  0  0
    7.9937   -1.2059   -2.0888 C   0  0  0  0  0  4           0  0  0
    8.6215   -2.4119   -1.3925 C   0  0  0  0  0  4           0  0  0
   10.1490   -2.4119   -1.3925 C   0  0  0  0  0  4           0  0  0
   10.7769   -3.6178   -0.6963 C   0  0  0  0  0  4           0  0  0
   12.2949   -3.5532   -0.7336 C   0  0  0  0  0  4           0  0  0
  1 16  2  0     0  0
  2 17  2  0     0  0
  3 18  2  0     0  0
  4  5  1  0     0  0
  4  7  1  0     0  0
  5  8  2  0     0  0
  6  9  1  0     0  0
  6 16  1  0     0  0
  6 17  1  0     0  0
  7 10  2  0     0  0
  7 16  1  0     0  0
  8 10  1  0     0  0
  8 18  1  0     0  0
  9 12  2  0     0  0
  9 13  1  0     0  0
 10 17  1  0     0  0
 11 14  2  0     0  0
 11 15  1  0     0  0
 11 19  1  0     0  0
 12 14  1  0     0  0
 13 15  2  0     0  0
 18 20  1  0     0  0
 20 21  1  0     0  0
 21 22  1  0     0  0
 22 23  1  0     0  0
 23 24  1  0     0  0
 24 25  1  0     0  0
 25 26  1  0     0  0
 26 27  1  0     0  0
 27 28  1  0     0  0
 28 29  1  0     0  0
 29 30  1  0     0  0
 30 31  1  0     0  0
 31 32  1  0     0  0
 32 33  1  0     0  0
 33 34  1  0     0  0
 34 35  1  0     0  0
 35 36  1  0     0  0
M  END
> <standard_type>
IC50

> <# Confs.>
25

> <canonical_smiles>
O=C1C2=C(C(C(CCCCCCCCCCCCCCCCC)=O)=NN2)C(N1C3=CC=C(C)C=C3)=O

> <standard_relation>
=

> <predicted_activity_value>
5.356547323513812

> <actual_activity_value>
5.443697499232712

> <Compound>
12

> <publication_ID>
nan

> <standard_units>
nM

> hash
5256564608547534824

$$$$
12_
XXILIB    08252103493D 0   0.00000     0.00000

 36 38  0     1  0            999 V2000
   -7.0221   -6.6287    5.4120 O   0  0  0  0  0  2           0  0  0
   -3.3869   -4.0852    6.9650 O   0  0  0  0  0  2           0  0  0
   -3.5246   -1.1790    5.6882 O   0  0  0  0  0  2           0  0  0
   -6.9680   -3.6623    4.2369 N   0  0  0  0  0  3           0  0  0
   -6.4472   -2.4192    4.0994 N   0  0  0  0  0  3           0  0  0
   -5.0638   -5.7106    6.4354 N   0  0  2  0  0  3           0  0  0
   -6.2370   -4.4235    5.0718 C   0  0  0  0  0  4           0  0  0
   -5.3475   -2.4172    4.8870 C   0  0  0  0  0  4           0  0  0
   -4.6169   -6.8162    7.2035 C   0  0  0  0  0  4           0  0  0
   -5.1957   -3.6643    5.5062 C   0  0  0  0  0  4           0  0  0
   -3.7277   -9.0243    8.7348 C   0  0  0  0  0  4           0  0  0
   -3.2523   -7.0019    7.4747 C   0  0  0  0  0  4           0  0  0
   -5.5291   -7.7507    7.7166 C   0  0  0  0  0  4           0  0  0
   -2.8145   -8.0916    8.2360 C   0  0  0  0  0  4           0  0  0
   -5.0891   -8.8385    8.4782 C   0  0  0  0  0  4           0  0  0
   -6.2166   -5.7365    5.6222 C   0  0  0  0  0  4           0  0  0
   -4.4002   -4.4620    6.3997 C   0  0  0  0  0  4           0  0  0
   -4.5313   -1.2154    4.9813 C   0  0  0  0  0  4           0  0  0
   -3.2665  -10.1729    9.5797 C   0  0  0  0  0  4           0  0  0
   -4.9386   -0.0000    4.1775 C   0  0  0  0  0  4           0  0  0
   -4.3108   -0.0000    2.7850 C   0  0  0  0  0  4           0  0  0
   -2.7833   -0.0000    2.7850 C   0  0  0  0  0  4           0  0  0
   -2.1554   -0.0000    1.3925 C   0  0  0  0  0  4           0  0  0
   -0.6279    0.0000    1.3925 C   0  0  0  0  0  4           0  0  0
    0.0000    0.0000    0.0000 C   0  0  0  0  0  4           0  0  0
    1.5275   -0.0000   -0.0000 C   0  0  0  0  0  4           0  0  0
    2.1554    0.0000   -1.3925 C   0  0  0  0  0  4           0  0  0
    3.6829    0.0000   -1.3925 C   0  0  0  0  0  4           0  0  0
    4.3108    0.0000   -2.7850 C   0  0  0  0  0  4           0  0  0
    5.8383    0.0000   -2.7850 C   0  0  0  0  0  4           0  0  0
    6.4661    0.0000   -4.1775 C   0  0  0  0  0  4           0  0  0
    7.9937    0.0000   -4.1775 C   0  0  0  0  0  4           0  0  0
    8.6215    0.0000   -5.5700 C   0  0  0  0  0  4           0  0  0
   10.1490    0.0000   -5.5700 C   0  0  0  0  0  4           0  0  0
   10.7769    0.0000   -6.9625 C   0  0  0  0  0  4           0  0  0
   12.2949    0.0000   -6.8879 C   0  0  0  0  0  4           0  0  0
  1 16  2  0     0  0
  2 17  2  0     0  0
  3 18  2  0     0  0
  4  5  1  0     0  0
  4  7  1  0     0  0
  5  8  2  0     0  0
  6  9  1  0     0  0
  6 16  1  0     0  0
  6 17  1  0     0  0
  7 10  2  0     0  0
  7 16  1  0     0  0
  8 10  1  0     0  0
  8 18  1  0     0  0
  9 12  2  0     0  0
  9 13  1  0     0  0
 10 17  1  0     0  0
 11 14  2  0     0  0
 11 15  1  0     0  0
 11 19  1  0     0  0
 12 14  1  0     0  0
 13 15  2  0     0  0
 18 20  1  0     0  0
 20 21  1  0     0  0
 21 22  1  0     0  0
 22 23  1  0     0  0
 23 24  1  0     0  0
 24 25  1  0     0  0
 25 26  1  0     0  0
 26 27  1  0     0  0
 27 28  1  0     0  0
 28 29  1  0     0  0
 29 30  1  0     0  0
 30 31  1  0     0  0
 31 32  1  0     0  0
 32 33  1  0     0  0
 33 34  1  0     0  0
 34 35  1  0     0  0
 35 36  1  0     0  0
M  END
> <standard_type>
IC50

> <# Confs.>
25

> <canonical_smiles>
O=C1C2=C(C(C(CCCCCCCCCCCCCCCCC)=O)=NN2)C(N1C3=CC=C(C)C=C3)=O

> <standard_relation>
=

> <predicted_activity_value>
5.356547323513812

> <actual_activity_value>
5.443697499232712

> <Compound>
12

> <publication_ID>
nan

> <standard_units>
nM

> hash
5256564608547534824

$$$$
12_
XXILIB    08252103493D 0   0.00000     0.00000

 36 38  0     1  0            999 V2000
  -10.5377    0.0466    8.4731 O   0  0  0  0  0  2           0  0  0
  -10.1075    0.0347    3.7923 O   0  0  0  0  0  2           0  0  0
   -7.0238   -0.0000    3.0271 O   0  0  0  0  0  2           0  0  0
   -7.5026    0.0200    7.4882 N   0  0  0  0  0  3           0  0  0
   -6.5319    0.0108    6.5430 N   0  0  0  0  0  3           0  0  0
  -10.7745    0.0428    6.0921 N   0  0  2  0  0  3           0  0  0
   -8.7333    0.0276    6.9439 C   0  0  0  0  0  4           0  0  0
   -7.1973    0.0111    5.3655 C   0  0  0  0  0  4           0  0  0
  -12.1869    0.0566    5.9611 C   0  0  0  0  0  4           0  0  0
   -8.5794    0.0223    5.5927 C   0  0  0  0  0  4           0  0  0
  -15.0051    0.0871    5.7014 C   0  0  0  0  0  4           0  0  0
  -12.8151   -0.5431    4.8585 C   0  0  0  0  0  4           0  0  0
  -12.9931    0.6662    6.9343 C   0  0  0  0  0  4           0  0  0
  -14.2090   -0.5314    4.7337 C   0  0  0  0  0  4           0  0  0
  -14.3862    0.6757    6.8079 C   0  0  0  0  0  4           0  0  0
  -10.1029    0.0405    7.3329 C   0  0  0  0  0  4           0  0  0
   -9.8857    0.0323    4.9918 C   0  0  0  0  0  4           0  0  0
   -6.4504   -0.0000    4.1160 C   0  0  0  0  0  4           0  0  0
  -16.4994    0.0713    5.5894 C   0  0  0  0  0  4           0  0  0
   -4.9386    0.0000    4.1775 C   0  0  0  0  0  4           0  0  0
   -4.3108    0.0000    2.7850 C   0  0  0  0  0  4           0  0  0
   -2.7833    0.0000    2.7850 C   0  0  0  0  0  4           0  0  0
   -2.1554    0.0000    1.3925 C   0  0  0  0  0  4           0  0  0
   -0.6279    0.0000    1.3925 C   0  0  0  0  0  4           0  0  0
    0.0000   -0.0000    0.0000 C   0  0  0  0  0  4           0  0  0
    1.5275   -0.0000    0.0000 C   0  0  0  0  0  4           0  0  0
    2.1554   -0.0000   -1.3925 C   0  0  0  0  0  4           0  0  0
    3.6829   -0.0000   -1.3925 C   0  0  0  0  0  4           0  0  0
    4.3108    0.0000   -2.7850 C   0  0  0  0  0  4           0  0  0
    5.8383    0.0000   -2.7850 C   0  0  0  0  0  4           0  0  0
    6.4661    0.0000   -4.1775 C   0  0  0  0  0  4           0  0  0
    6.0895    1.2059   -5.0361 C   0  0  0  0  0  4           0  0  0
    6.7174    1.2059   -6.4286 C   0  0  0  0  0  4           0  0  0
    6.3407    2.4119   -7.2872 C   0  0  0  0  0  4           0  0  0
    6.9686    2.4119   -8.6797 C   0  0  0  0  0  4           0  0  0
    6.5524    3.6369   -9.4772 C   0  0  0  0  0  4           0  0  0
  1 16  2  0     0  0
  2 17  2  0     0  0
  3 18  2  0     0  0
  4  5  1  0     0  0
  4  7  1  0     0  0
  5  8  2  0     0  0
  6  9  1  0     0  0
  6 16  1  0     0  0
  6 17  1  0     0  0
  7 10  2  0     0  0
  7 16  1  0     0  0
  8 10  1  0     0  0
  8 18  1  0     0  0
  9 12  2  0     0  0
  9 13  1  0     0  0
 10 17  1  0     0  0
 11 14  2  0     0  0
 11 15  1  0     0  0
 11 19  1  0     0  0
 12 14  1  0     0  0
 13 15  2  0     0  0
 18 20  1  0     0  0
 20 21  1  0     0  0
 21 22  1  0     0  0
 22 23  1  0     0  0
 23 24  1  0     0  0
 24 25  1  0     0  0
 25 26  1  0     0  0
 26 27  1  0     0  0
 27 28  1  0     0  0
 28 29  1  0     0  0
 29 30  1  0     0  0
 30 31  1  0     0  0
 31 32  1  0     0  0
 32 33  1  0     0  0
 33 34  1  0     0  0
 34 35  1  0     0  0
 35 36  1  0     0  0
M  END
> <standard_type>
IC50

> <# Confs.>
25

> <canonical_smiles>
O=C1C2=C(C(C(CCCCCCCCCCCCCCCCC)=O)=NN2)C(N1C3=CC=C(C)C=C3)=O

> <standard_relation>
=

> <predicted_activity_value>
5.356547323513812

> <actual_activity_value>
5.443697499232712

> <Compound>
12

> <publication_ID>
nan

> <standard_units>
nM

> hash
5256564608547534824

$$$$
12_
XXILIB    08252103493D 0   0.00000     0.00000

 36 38  0     1  0            999 V2000
  -10.5377    0.0466    8.4731 O   0  0  0  0  0  2           0  0  0
  -10.1075    0.0347    3.7923 O   0  0  0  0  0  2           0  0  0
   -7.0238   -0.0000    3.0271 O   0  0  0  0  0  2           0  0  0
   -7.5026    0.0200    7.4882 N   0  0  0  0  0  3           0  0  0
   -6.5319    0.0108    6.5430 N   0  0  0  0  0  3           0  0  0
  -10.7745    0.0428    6.0921 N   0  0  2  0  0  3           0  0  0
   -8.7333    0.0276    6.9439 C   0  0  0  0  0  4           0  0  0
   -7.1973    0.0111    5.3655 C   0  0  0  0  0  4           0  0  0
  -12.1869    0.0566    5.9611 C   0  0  0  0  0  4           0  0  0
   -8.5794    0.0223    5.5927 C   0  0  0  0  0  4           0  0  0
  -15.0051    0.0871    5.7014 C   0  0  0  0  0  4           0  0  0
  -12.8151   -0.5431    4.8585 C   0  0  0  0  0  4           0  0  0
  -12.9931    0.6662    6.9343 C   0  0  0  0  0  4           0  0  0
  -14.2090   -0.5314    4.7337 C   0  0  0  0  0  4           0  0  0
  -14.3862    0.6757    6.8079 C   0  0  0  0  0  4           0  0  0
  -10.1029    0.0405    7.3329 C   0  0  0  0  0  4           0  0  0
   -9.8857    0.0323    4.9918 C   0  0  0  0  0  4           0  0  0
   -6.4504   -0.0000    4.1160 C   0  0  0  0  0  4           0  0  0
  -16.4994    0.0713    5.5894 C   0  0  0  0  0  4           0  0  0
   -4.9386    0.0000    4.1775 C   0  0  0  0  0  4           0  0  0
   -4.3108    0.0000    2.7850 C   0  0  0  0  0  4           0  0  0
   -2.7833    0.0000    2.7850 C   0  0  0  0  0  4           0  0  0
   -2.1554    0.0000    1.3925 C   0  0  0  0  0  4           0  0  0
   -0.6279    0.0000    1.3925 C   0  0  0  0  0  4           0  0  0
    0.0000   -0.0000    0.0000 C   0  0  0  0  0  4           0  0  0
    1.5275   -0.0000   -0.0000 C   0  0  0  0  0  4           0  0  0
    2.1554    0.0000   -1.3925 C   0  0  0  0  0  4           0  0  0
    3.6829    0.0000   -1.3925 C   0  0  0  0  0  4           0  0  0
    4.3108    0.0000   -2.7850 C   0  0  0  0  0  4           0  0  0
    5.8383    0.0000   -2.7850 C   0  0  0  0  0  4           0  0  0
    6.4661    0.0000   -4.1775 C   0  0  0  0  0  4           0  0  0
    7.9937    0.0000   -4.1775 C   0  0  0  0  0  4           0  0  0
    8.6215   -1.2059   -3.4813 C   0  0  0  0  0  4           0  0  0
   10.1490   -1.2059   -3.4813 C   0  0  0  0  0  4           0  0  0
   10.7769   -2.4119   -2.7850 C   0  0  0  0  0  4           0  0  0
   12.2949   -2.3473   -2.8223 C   0  0  0  0  0  4           0  0  0
  1 16  2  0     0  0
  2 17  2  0     0  0
  3 18  2  0     0  0
  4  5  1  0     0  0
  4  7  1  0     0  0
  5  8  2  0     0  0
  6  9  1  0     0  0
  6 16  1  0     0  0
  6 17  1  0     0  0
  7 10  2  0     0  0
  7 16  1  0     0  0
  8 10  1  0     0  0
  8 18  1  0     0  0
  9 12  2  0     0  0
  9 13  1  0     0  0
 10 17  1  0     0  0
 11 14  2  0     0  0
 11 15  1  0     0  0
 11 19  1  0     0  0
 12 14  1  0     0  0
 13 15  2  0     0  0
 18 20  1  0     0  0
 20 21  1  0     0  0
 21 22  1  0     0  0
 22 23  1  0     0  0
 23 24  1  0     0  0
 24 25  1  0     0  0
 25 26  1  0     0  0
 26 27  1  0     0  0
 27 28  1  0     0  0
 28 29  1  0     0  0
 29 30  1  0     0  0
 30 31  1  0     0  0
 31 32  1  0     0  0
 32 33  1  0     0  0
 33 34  1  0     0  0
 34 35  1  0     0  0
 35 36  1  0     0  0
M  END
> <standard_type>
IC50

> <# Confs.>
25

> <canonical_smiles>
O=C1C2=C(C(C(CCCCCCCCCCCCCCCCC)=O)=NN2)C(N1C3=CC=C(C)C=C3)=O

> <standard_relation>
=

> <predicted_activity_value>
5.356547323513812

> <actual_activity_value>
5.443697499232712

> <Compound>
12

> <publication_ID>
nan

> <standard_units>
nM

> hash
5256564608547534824

$$$$
12_
XXILIB    08252103493D 0   0.00000     0.00000

 36 38  0     1  0            999 V2000
  -10.5377    0.0466    8.4731 O   0  0  0  0  0  2           0  0  0
  -10.1075    0.0347    3.7923 O   0  0  0  0  0  2           0  0  0
   -7.0238   -0.0000    3.0271 O   0  0  0  0  0  2           0  0  0
   -7.5026    0.0200    7.4882 N   0  0  0  0  0  3           0  0  0
   -6.5319    0.0108    6.5430 N   0  0  0  0  0  3           0  0  0
  -10.7745    0.0428    6.0921 N   0  0  2  0  0  3           0  0  0
   -8.7333    0.0276    6.9439 C   0  0  0  0  0  4           0  0  0
   -7.1973    0.0111    5.3655 C   0  0  0  0  0  4           0  0  0
  -12.1869    0.0566    5.9611 C   0  0  0  0  0  4           0  0  0
   -8.5794    0.0223    5.5927 C   0  0  0  0  0  4           0  0  0
  -15.0051    0.0871    5.7014 C   0  0  0  0  0  4           0  0  0
  -12.8151   -0.5431    4.8585 C   0  0  0  0  0  4           0  0  0
  -12.9931    0.6662    6.9343 C   0  0  0  0  0  4           0  0  0
  -14.2090   -0.5314    4.7337 C   0  0  0  0  0  4           0  0  0
  -14.3862    0.6757    6.8079 C   0  0  0  0  0  4           0  0  0
  -10.1029    0.0405    7.3329 C   0  0  0  0  0  4           0  0  0
   -9.8857    0.0323    4.9918 C   0  0  0  0  0  4           0  0  0
   -6.4504   -0.0000    4.1160 C   0  0  0  0  0  4           0  0  0
  -16.4994    0.0713    5.5894 C   0  0  0  0  0  4           0  0  0
   -4.9386    0.0000    4.1775 C   0  0  0  0  0  4           0  0  0
   -4.3108    0.0000    2.7850 C   0  0  0  0  0  4           0  0  0
   -2.7833    0.0000    2.7850 C   0  0  0  0  0  4           0  0  0
   -2.1554    0.0000    1.3925 C   0  0  0  0  0  4           0  0  0
   -0.6279    0.0000    1.3925 C   0  0  0  0  0  4           0  0  0
    0.0000   -0.0000    0.0000 C   0  0  0  0  0  4           0  0  0
    1.5275   -0.0000   -0.0000 C   0  0  0  0  0  4           0  0  0
    2.1554    0.0000   -1.3925 C   0  0  0  0  0  4           0  0  0
    3.6829    0.0000   -1.3925 C   0  0  0  0  0  4           0  0  0
    4.3108    0.0000   -2.7850 C   0  0  0  0  0  4           0  0  0
    5.8383    0.0000   -2.7850 C   0  0  0  0  0  4           0  0  0
    6.4661    0.0000   -4.1775 C   0  0  0  0  0  4           0  0  0
    7.9937    0.0000   -4.1775 C   0  0  0  0  0  4           0  0  0
    8.6215    0.0000   -5.5700 C   0  0  0  0  0  4           0  0  0
    8.2449    1.2059   -6.4286 C   0  0  0  0  0  4           0  0  0
    8.8728    1.2059   -7.8211 C   0  0  0  0  0  4           0  0  0
    8.4565    2.4310   -8.6186 C   0  0  0  0  0  4           0  0  0
  1 16  2  0     0  0
  2 17  2  0     0  0
  3 18  2  0     0  0
  4  5  1  0     0  0
  4  7  1  0     0  0
  5  8  2  0     0  0
  6  9  1  0     0  0
  6 16  1  0     0  0
  6 17  1  0     0  0
  7 10  2  0     0  0
  7 16  1  0     0  0
  8 10  1  0     0  0
  8 18  1  0     0  0
  9 12  2  0     0  0
  9 13  1  0     0  0
 10 17  1  0     0  0
 11 14  2  0     0  0
 11 15  1  0     0  0
 11 19  1  0     0  0
 12 14  1  0     0  0
 13 15  2  0     0  0
 18 20  1  0     0  0
 20 21  1  0     0  0
 21 22  1  0     0  0
 22 23  1  0     0  0
 23 24  1  0     0  0
 24 25  1  0     0  0
 25 26  1  0     0  0
 26 27  1  0     0  0
 27 28  1  0     0  0
 28 29  1  0     0  0
 29 30  1  0     0  0
 30 31  1  0     0  0
 31 32  1  0     0  0
 32 33  1  0     0  0
 33 34  1  0     0  0
 34 35  1  0     0  0
 35 36  1  0     0  0
M  END
> <standard_type>
IC50

> <# Confs.>
25

> <canonical_smiles>
O=C1C2=C(C(C(CCCCCCCCCCCCCCCCC)=O)=NN2)C(N1C3=CC=C(C)C=C3)=O

> <standard_relation>
=

> <predicted_activity_value>
5.356547323513812

> <actual_activity_value>
5.443697499232712

> <Compound>
12

> <publication_ID>
nan

> <standard_units>
nM

> hash
5256564608547534824

$$$$
12_
XXILIB    08252103493D 0   0.00000     0.00000

 36 38  0     1  0            999 V2000
   -2.2009   -5.3265   12.2321 O   0  0  0  0  0  2           0  0  0
    0.3333   -6.6471    8.4999 O   0  0  0  0  0  2           0  0  0
    0.0304   -4.4676    6.2078 O   0  0  0  0  0  2           0  0  0
   -2.3747   -3.2676    9.8003 N   0  0  0  0  0  3           0  0  0
   -2.0756   -2.8331    8.5524 N   0  0  0  0  0  3           0  0  0
   -0.8013   -6.3591   10.5889 N   0  0  2  0  0  3           0  0  0
   -1.7713   -4.4367   10.0829 C   0  0  0  0  0  4           0  0  0
   -1.2499   -3.7778    8.0471 C   0  0  0  0  0  4           0  0  0
   -0.3903   -7.5276   11.2801 C   0  0  0  0  0  4           0  0  0
   -1.0457   -4.7936    8.9896 C   0  0  0  0  0  4           0  0  0
    0.4265   -9.8603   12.6594 C   0  0  0  0  0  4           0  0  0
    0.8578   -8.1162   11.0235 C   0  0  0  0  0  4           0  0  0
   -1.2198   -8.1226   12.2427 C   0  0  0  0  0  4           0  0  0
    1.2624   -9.2670   11.7096 C   0  0  0  0  0  4           0  0  0
   -0.8127   -9.2721   12.9280 C   0  0  0  0  0  4           0  0  0
   -1.6626   -5.3860   11.1386 C   0  0  0  0  0  4           0  0  0
   -0.3938   -6.0438    9.2717 C   0  0  0  0  0  4           0  0  0
   -0.7230   -3.6273    6.6984 C   0  0  0  0  0  4           0  0  0
    0.8703  -11.0720   13.4213 C   0  0  0  0  0  4           0  0  0
   -1.1303   -2.4119    5.8946 C   0  0  0  0  0  4           0  0  0
   -0.5025   -2.4119    4.5021 C   0  0  0  0  0  4           0  0  0
   -0.8791   -1.2059    3.6436 C   0  0  0  0  0  4           0  0  0
   -0.2512   -1.2059    2.2511 C   0  0  0  0  0  4           0  0  0
   -0.6279    0.0000    1.3925 C   0  0  0  0  0  4           0  0  0
    0.0000    0.0000    0.0000 C   0  0  0  0  0  4           0  0  0
    1.5275   -0.0000   -0.0000 C   0  0  0  0  0  4           0  0  0
    2.1554    0.0000   -1.3925 C   0  0  0  0  0  4           0  0  0
    3.6829    0.0000   -1.3925 C   0  0  0  0  0  4           0  0  0
    4.3108    0.0000   -2.7850 C   0  0  0  0  0  4           0  0  0
    5.8383    0.0000   -2.7850 C   0  0  0  0  0  4           0  0  0
    6.4661    0.0000   -4.1775 C   0  0  0  0  0  4           0  0  0
    7.9937    0.0000   -4.1775 C   0  0  0  0  0  4           0  0  0
    8.6215    0.0000   -5.5700 C   0  0  0  0  0  4           0  0  0
   10.1490    0.0000   -5.5700 C   0  0  0  0  0  4           0  0  0
   10.7769    0.0000   -6.9625 C   0  0  0  0  0  4           0  0  0
   12.2949    0.0000   -6.8879 C   0  0  0  0  0  4           0  0  0
  1 16  2  0     0  0
  2 17  2  0     0  0
  3 18  2  0     0  0
  4  5  1  0     0  0
  4  7  1  0     0  0
  5  8  2  0     0  0
  6  9  1  0     0  0
  6 16  1  0     0  0
  6 17  1  0     0  0
  7 10  2  0     0  0
  7 16  1  0     0  0
  8 10  1  0     0  0
  8 18  1  0     0  0
  9 12  2  0     0  0
  9 13  1  0     0  0
 10 17  1  0     0  0
 11 14  2  0     0  0
 11 15  1  0     0  0
 11 19  1  0     0  0
 12 14  1  0     0  0
 13 15  2  0     0  0
 18 20  1  0     0  0
 20 21  1  0     0  0
 21 22  1  0     0  0
 22 23  1  0     0  0
 23 24  1  0     0  0
 24 25  1  0     0  0
 25 26  1  0     0  0
 26 27  1  0     0  0
 27 28  1  0     0  0
 28 29  1  0     0  0
 29 30  1  0     0  0
 30 31  1  0     0  0
 31 32  1  0     0  0
 32 33  1  0     0  0
 33 34  1  0     0  0
 34 35  1  0     0  0
 35 36  1  0     0  0
M  END
> <standard_type>
IC50

> <# Confs.>
25

> <canonical_smiles>
O=C1C2=C(C(C(CCCCCCCCCCCCCCCCC)=O)=NN2)C(N1C3=CC=C(C)C=C3)=O

> <standard_relation>
=

> <predicted_activity_value>
5.356547323513812

> <actual_activity_value>
5.443697499232712

> <Compound>
12

> <publication_ID>
nan

> <standard_units>
nM

> hash
5256564608547534824

$$$$
12_
XXILIB    08252103493D 0   0.00000     0.00000

 36 38  0     1  0            999 V2000
  -10.5377    0.0466    8.4731 O   0  0  0  0  0  2           0  0  0
  -10.1075    0.0347    3.7923 O   0  0  0  0  0  2           0  0  0
   -7.0238   -0.0000    3.0271 O   0  0  0  0  0  2           0  0  0
   -7.5026    0.0200    7.4882 N   0  0  0  0  0  3           0  0  0
   -6.5319    0.0108    6.5430 N   0  0  0  0  0  3           0  0  0
  -10.7745    0.0428    6.0921 N   0  0  2  0  0  3           0  0  0
   -8.7333    0.0276    6.9439 C   0  0  0  0  0  4           0  0  0
   -7.1973    0.0111    5.3655 C   0  0  0  0  0  4           0  0  0
  -12.1869    0.0566    5.9611 C   0  0  0  0  0  4           0  0  0
   -8.5794    0.0223    5.5927 C   0  0  0  0  0  4           0  0  0
  -15.0051    0.0871    5.7014 C   0  0  0  0  0  4           0  0  0
  -12.8151   -0.5431    4.8585 C   0  0  0  0  0  4           0  0  0
  -12.9931    0.6662    6.9343 C   0  0  0  0  0  4           0  0  0
  -14.2090   -0.5314    4.7337 C   0  0  0  0  0  4           0  0  0
  -14.3862    0.6757    6.8079 C   0  0  0  0  0  4           0  0  0
  -10.1029    0.0405    7.3329 C   0  0  0  0  0  4           0  0  0
   -9.8857    0.0323    4.9918 C   0  0  0  0  0  4           0  0  0
   -6.4504   -0.0000    4.1160 C   0  0  0  0  0  4           0  0  0
  -16.4994    0.0713    5.5894 C   0  0  0  0  0  4           0  0  0
   -4.9386    0.0000    4.1775 C   0  0  0  0  0  4           0  0  0
   -4.3108    0.0000    2.7850 C   0  0  0  0  0  4           0  0  0
   -2.7833    0.0000    2.7850 C   0  0  0  0  0  4           0  0  0
   -2.1554    0.0000    1.3925 C   0  0  0  0  0  4           0  0  0
   -0.6279    0.0000    1.3925 C   0  0  0  0  0  4           0  0  0
    0.0000   -0.0000    0.0000 C   0  0  0  0  0  4           0  0  0
    1.5275    0.0000   -0.0000 C   0  0  0  0  0  4           0  0  0
    2.1554    1.2059    0.6963 C   0  0  0  0  0  4           0  0  0
    3.6829    1.2059    0.6963 C   0  0  0  0  0  4           0  0  0
    4.3108    2.4119    1.3925 C   0  0  0  0  0  4           0  0  0
    5.8383    2.4119    1.3925 C   0  0  0  0  0  4           0  0  0
    6.4661    3.6178    2.0888 C   0  0  0  0  0  4           0  0  0
    7.9937    3.6178    2.0888 C   0  0  0  0  0  4           0  0  0
    8.6215    4.8238    2.7850 C   0  0  0  0  0  4           0  0  0
   10.1490    4.8238    2.7850 C   0  0  0  0  0  4           0  0  0
   10.7769    6.0297    3.4813 C   0  0  0  0  0  4           0  0  0
   12.2949    5.9651    3.4440 C   0  0  0  0  0  4           0  0  0
  1 16  2  0     0  0
  2 17  2  0     0  0
  3 18  2  0     0  0
  4  5  1  0     0  0
  4  7  1  0     0  0
  5  8  2  0     0  0
  6  9  1  0     0  0
  6 16  1  0     0  0
  6 17  1  0     0  0
  7 10  2  0     0  0
  7 16  1  0     0  0
  8 10  1  0     0  0
  8 18  1  0     0  0
  9 12  2  0     0  0
  9 13  1  0     0  0
 10 17  1  0     0  0
 11 14  2  0     0  0
 11 15  1  0     0  0
 11 19  1  0     0  0
 12 14  1  0     0  0
 13 15  2  0     0  0
 18 20  1  0     0  0
 20 21  1  0     0  0
 21 22  1  0     0  0
 22 23  1  0     0  0
 23 24  1  0     0  0
 24 25  1  0     0  0
 25 26  1  0     0  0
 26 27  1  0     0  0
 27 28  1  0     0  0
 28 29  1  0     0  0
 29 30  1  0     0  0
 30 31  1  0     0  0
 31 32  1  0     0  0
 32 33  1  0     0  0
 33 34  1  0     0  0
 34 35  1  0     0  0
 35 36  1  0     0  0
M  END
> <standard_type>
IC50

> <# Confs.>
25

> <canonical_smiles>
O=C1C2=C(C(C(CCCCCCCCCCCCCCCCC)=O)=NN2)C(N1C3=CC=C(C)C=C3)=O

> <standard_relation>
=

> <predicted_activity_value>
5.356547323513812

> <actual_activity_value>
5.443697499232712

> <Compound>
12

> <publication_ID>
nan

> <standard_units>
nM

> hash
5256564608547534824

$$$$
12_
XXILIB    08252103493D 0   0.00000     0.00000

 36 38  0     1  0            999 V2000
  -10.5377    0.0466    8.4731 O   0  0  0  0  0  2           0  0  0
  -10.1075    0.0347    3.7923 O   0  0  0  0  0  2           0  0  0
   -7.0238   -0.0000    3.0271 O   0  0  0  0  0  2           0  0  0
   -7.5026    0.0200    7.4882 N   0  0  0  0  0  3           0  0  0
   -6.5319    0.0108    6.5430 N   0  0  0  0  0  3           0  0  0
  -10.7745    0.0428    6.0921 N   0  0  2  0  0  3           0  0  0
   -8.7333    0.0276    6.9439 C   0  0  0  0  0  4           0  0  0
   -7.1973    0.0111    5.3655 C   0  0  0  0  0  4           0  0  0
  -12.1869    0.0566    5.9611 C   0  0  0  0  0  4           0  0  0
   -8.5794    0.0223    5.5927 C   0  0  0  0  0  4           0  0  0
  -15.0051    0.0871    5.7014 C   0  0  0  0  0  4           0  0  0
  -12.8151   -0.5431    4.8585 C   0  0  0  0  0  4           0  0  0
  -12.9931    0.6662    6.9343 C   0  0  0  0  0  4           0  0  0
  -14.2090   -0.5314    4.7337 C   0  0  0  0  0  4           0  0  0
  -14.3862    0.6757    6.8079 C   0  0  0  0  0  4           0  0  0
  -10.1029    0.0405    7.3329 C   0  0  0  0  0  4           0  0  0
   -9.8857    0.0323    4.9918 C   0  0  0  0  0  4           0  0  0
   -6.4504   -0.0000    4.1160 C   0  0  0  0  0  4           0  0  0
  -16.4994    0.0713    5.5894 C   0  0  0  0  0  4           0  0  0
   -4.9386    0.0000    4.1775 C   0  0  0  0  0  4           0  0  0
   -4.3108    0.0000    2.7850 C   0  0  0  0  0  4           0  0  0
   -2.7833    0.0000    2.7850 C   0  0  0  0  0  4           0  0  0
   -2.1554    0.0000    1.3925 C   0  0  0  0  0  4           0  0  0
   -0.6279    0.0000    1.3925 C   0  0  0  0  0  4           0  0  0
    0.0000   -0.0000    0.0000 C   0  0  0  0  0  4           0  0  0
    1.5275   -0.0000    0.0000 C   0  0  0  0  0  4           0  0  0
    2.1554    0.0000   -1.3925 C   0  0  0  0  0  4           0  0  0
    1.7787   -1.2059   -2.2511 C   0  0  0  0  0  4           0  0  0
    2.4066   -1.2059   -3.6436 C   0  0  0  0  0  4           0  0  0
    2.0300   -2.4119   -4.5021 C   0  0  0  0  0  4           0  0  0
    2.6578   -2.4119   -5.8946 C   0  0  0  0  0  4           0  0  0
    2.2812   -3.6178   -6.7532 C   0  0  0  0  0  4           0  0  0
    2.9091   -3.6178   -8.1457 C   0  0  0  0  0  4           0  0  0
    2.5324   -4.8238   -9.0043 C   0  0  0  0  0  4           0  0  0
    3.1603   -4.8238  -10.3968 C   0  0  0  0  0  4           0  0  0
    2.7441   -6.0488  -11.1943 C   0  0  0  0  0  4           0  0  0
  1 16  2  0     0  0
  2 17  2  0     0  0
  3 18  2  0     0  0
  4  5  1  0     0  0
  4  7  1  0     0  0
  5  8  2  0     0  0
  6  9  1  0     0  0
  6 16  1  0     0  0
  6 17  1  0     0  0
  7 10  2  0     0  0
  7 16  1  0     0  0
  8 10  1  0     0  0
  8 18  1  0     0  0
  9 12  2  0     0  0
  9 13  1  0     0  0
 10 17  1  0     0  0
 11 14  2  0     0  0
 11 15  1  0     0  0
 11 19  1  0     0  0
 12 14  1  0     0  0
 13 15  2  0     0  0
 18 20  1  0     0  0
 20 21  1  0     0  0
 21 22  1  0     0  0
 22 23  1  0     0  0
 23 24  1  0     0  0
 24 25  1  0     0  0
 25 26  1  0     0  0
 26 27  1  0     0  0
 27 28  1  0     0  0
 28 29  1  0     0  0
 29 30  1  0     0  0
 30 31  1  0     0  0
 31 32  1  0     0  0
 32 33  1  0     0  0
 33 34  1  0     0  0
 34 35  1  0     0  0
 35 36  1  0     0  0
M  END
> <standard_type>
IC50

> <# Confs.>
25

> <canonical_smiles>
O=C1C2=C(C(C(CCCCCCCCCCCCCCCCC)=O)=NN2)C(N1C3=CC=C(C)C=C3)=O

> <standard_relation>
=

> <predicted_activity_value>
5.356547323513812

> <actual_activity_value>
5.443697499232712

> <Compound>
12

> <publication_ID>
nan

> <standard_units>
nM

> hash
5256564608547534824

$$$$
12_
XXILIB    08252103493D 0   0.00000     0.00000

 36 38  0     1  0            999 V2000
  -10.5377    0.0466    8.4731 O   0  0  0  0  0  2           0  0  0
  -10.1075    0.0347    3.7923 O   0  0  0  0  0  2           0  0  0
   -7.0238   -0.0000    3.0271 O   0  0  0  0  0  2           0  0  0
   -7.5026    0.0200    7.4882 N   0  0  0  0  0  3           0  0  0
   -6.5319    0.0108    6.5430 N   0  0  0  0  0  3           0  0  0
  -10.7745    0.0428    6.0921 N   0  0  2  0  0  3           0  0  0
   -8.7333    0.0276    6.9439 C   0  0  0  0  0  4           0  0  0
   -7.1973    0.0111    5.3655 C   0  0  0  0  0  4           0  0  0
  -12.1869    0.0566    5.9611 C   0  0  0  0  0  4           0  0  0
   -8.5794    0.0223    5.5927 C   0  0  0  0  0  4           0  0  0
  -15.0051    0.0871    5.7014 C   0  0  0  0  0  4           0  0  0
  -12.8151   -0.5431    4.8585 C   0  0  0  0  0  4           0  0  0
  -12.9931    0.6662    6.9343 C   0  0  0  0  0  4           0  0  0
  -14.2090   -0.5314    4.7337 C   0  0  0  0  0  4           0  0  0
  -14.3862    0.6757    6.8079 C   0  0  0  0  0  4           0  0  0
  -10.1029    0.0405    7.3329 C   0  0  0  0  0  4           0  0  0
   -9.8857    0.0323    4.9918 C   0  0  0  0  0  4           0  0  0
   -6.4504   -0.0000    4.1160 C   0  0  0  0  0  4           0  0  0
  -16.4994    0.0713    5.5894 C   0  0  0  0  0  4           0  0  0
   -4.9386    0.0000    4.1775 C   0  0  0  0  0  4           0  0  0
   -4.3108    0.0000    2.7850 C   0  0  0  0  0  4           0  0  0
   -2.7833    0.0000    2.7850 C   0  0  0  0  0  4           0  0  0
   -2.1554    0.0000    1.3925 C   0  0  0  0  0  4           0  0  0
   -0.6279    0.0000    1.3925 C   0  0  0  0  0  4           0  0  0
    0.0000   -0.0000    0.0000 C   0  0  0  0  0  4           0  0  0
    1.5275   -0.0000    0.0000 C   0  0  0  0  0  4           0  0  0
    2.1554    0.0000   -1.3925 C   0  0  0  0  0  4           0  0  0
    3.6829   -0.0000   -1.3925 C   0  0  0  0  0  4           0  0  0
    4.3108    1.2059   -0.6963 C   0  0  0  0  0  4           0  0  0
    5.8383    1.2059   -0.6963 C   0  0  0  0  0  4           0  0  0
    6.4661    2.4119    0.0000 C   0  0  0  0  0  4           0  0  0
    7.9937    2.4119    0.0000 C   0  0  0  0  0  4           0  0  0
    8.6215    3.6178    0.6963 C   0  0  0  0  0  4           0  0  0
   10.1490    3.6178    0.6963 C   0  0  0  0  0  4           0  0  0
   10.7769    4.8238    1.3925 C   0  0  0  0  0  4           0  0  0
   12.2949    4.7592    1.3552 C   0  0  0  0  0  4           0  0  0
  1 16  2  0     0  0
  2 17  2  0     0  0
  3 18  2  0     0  0
  4  5  1  0     0  0
  4  7  1  0     0  0
  5  8  2  0     0  0
  6  9  1  0     0  0
  6 16  1  0     0  0
  6 17  1  0     0  0
  7 10  2  0     0  0
  7 16  1  0     0  0
  8 10  1  0     0  0
  8 18  1  0     0  0
  9 12  2  0     0  0
  9 13  1  0     0  0
 10 17  1  0     0  0
 11 14  2  0     0  0
 11 15  1  0     0  0
 11 19  1  0     0  0
 12 14  1  0     0  0
 13 15  2  0     0  0
 18 20  1  0     0  0
 20 21  1  0     0  0
 21 22  1  0     0  0
 22 23  1  0     0  0
 23 24  1  0     0  0
 24 25  1  0     0  0
 25 26  1  0     0  0
 26 27  1  0     0  0
 27 28  1  0     0  0
 28 29  1  0     0  0
 29 30  1  0     0  0
 30 31  1  0     0  0
 31 32  1  0     0  0
 32 33  1  0     0  0
 33 34  1  0     0  0
 34 35  1  0     0  0
 35 36  1  0     0  0
M  END
> <standard_type>
IC50

> <# Confs.>
25

> <canonical_smiles>
O=C1C2=C(C(C(CCCCCCCCCCCCCCCCC)=O)=NN2)C(N1C3=CC=C(C)C=C3)=O

> <standard_relation>
=

> <predicted_activity_value>
5.356547323513812

> <actual_activity_value>
5.443697499232712

> <Compound>
12

> <publication_ID>
nan

> <standard_units>
nM

> hash
5256564608547534824

$$$$
11_
XXILIB    08252103493D 0   0.00000     0.00000

 35 37  0     1  0            999 V2000
  -10.4600    0.1540    8.4585 O   0  0  0  0  0  2           0  0  0
   -9.9488    0.0712    3.8057 O   0  0  0  0  0  2           0  0  0
   -6.9306   -0.0000    3.0834 O   0  0  0  0  0  2           0  0  0
   -7.3792    0.0669    7.5319 N   0  0  0  0  0  3           0  0  0
   -6.3977    0.0314    6.5959 N   0  0  0  0  0  3           0  0  0
  -10.6238    0.1274    6.0887 N   0  0  1  0  0  3           0  0  0
   -8.6044    0.0895    6.9752 C   0  0  0  0  0  4           0  0  0
   -7.0514    0.0313    5.4127 C   0  0  0  0  0  4           0  0  0
   -8.4331    0.0662    5.6255 C   0  0  0  0  0  4           0  0  0
   -9.9808    0.1281    7.3366 C   0  0  0  0  0  4           0  0  0
   -9.7272    0.0874    5.0051 C   0  0  0  0  0  4           0  0  0
   -6.3342   -0.0000    4.1574 C   0  0  0  0  0  4           0  0  0
  -12.0750    0.1607    5.9380 C   0  0  2  0  0  4           0  0  0
   -4.8257   -0.0000    4.2197 C   0  0  0  0  0  4           0  0  0
  -12.5899   -1.0755    5.1850 C   0  0  0  0  0  4           0  0  0
  -12.5458    1.4545    5.2576 C   0  0  0  0  0  4           0  0  0
   -4.2342   -0.0000    2.8129 C   0  0  0  0  0  4           0  0  0
  -14.1080   -1.0413    5.0229 C   0  0  0  0  0  4           0  0  0
  -14.0644    1.4830    5.0995 C   0  0  0  0  0  4           0  0  0
   -2.7085    0.0000    2.8129 C   0  0  0  0  0  4           0  0  0
  -14.5755    0.2507    4.3586 C   0  0  0  0  0  4           0  0  0
   -2.1171   -0.0000    1.4065 C   0  0  0  0  0  4           0  0  0
   -0.5914    0.0000    1.4065 C   0  0  0  0  0  4           0  0  0
    0.0000   -0.0000    0.0000 C   0  0  0  0  0  4           0  0  0
    1.5260   -0.0000    0.0000 C   0  0  0  0  0  4           0  0  0
    2.1174    0.0000   -1.4065 C   0  0  0  0  0  4           0  0  0
    3.6431    0.0000   -1.4065 C   0  0  0  0  0  4           0  0  0
    4.2345    0.0000   -2.8129 C   0  0  0  0  0  4           0  0  0
    5.7602    0.0000   -2.8129 C   0  0  0  0  0  4           0  0  0
    6.3516    0.0000   -4.2194 C   0  0  0  0  0  4           0  0  0
    7.8773    0.0000   -4.2194 C   0  0  0  0  0  4           0  0  0
    8.4687    0.0000   -5.6259 C   0  0  0  0  0  4           0  0  0
    9.9944    0.0000   -5.6259 C   0  0  0  0  0  4           0  0  0
   10.5858    0.0000   -7.0324 C   0  0  0  0  0  4           0  0  0
   12.1071    0.0000   -7.0320 C   0  0  0  0  0  4           0  0  0
  1 10  2  0     0  0
  2 11  2  0     0  0
  3 12  2  0     0  0
  4  5  1  0     0  0
  4  7  1  0     0  0
  5  8  2  0     0  0
  6 10  1  0     0  0
  6 11  1  0     0  0
  6 13  1  0     0  0
  7  9  2  0     0  0
  7 10  1  0     0  0
  8  9  1  0     0  0
  8 12  1  0     0  0
  9 11  1  0     0  0
 12 14  1  0     0  0
 13 15  1  0     0  0
 13 16  1  0     0  0
 14 17  1  0     0  0
 15 18  1  0     0  0
 16 19  1  0     0  0
 17 20  1  0     0  0
 18 21  1  0     0  0
 19 21  1  0     0  0
 20 22  1  0     0  0
 22 23  1  0     0  0
 23 24  1  0     0  0
 24 25  1  0     0  0
 25 26  1  0     0  0
 26 27  1  0     0  0
 27 28  1  0     0  0
 28 29  1  0     0  0
 29 30  1  0     0  0
 30 31  1  0     0  0
 31 32  1  0     0  0
 32 33  1  0     0  0
 33 34  1  0     0  0
 34 35  1  0     0  0
M  END
> <standard_type>
IC50

> <# Confs.>
25

> <canonical_smiles>
O=C1C2=C(C(C(CCCCCCCCCCCCCCCCC)=O)=NN2)C(N1C3CCCCC3)=O

> <standard_relation>
=

> <predicted_activity_value>
5.795880017344075

> <actual_activity_value>
5.534617148551582

> <Compound>
11

> <publication_ID>
nan

> <standard_units>
nM

> hash
4736667858980123097

$$$$
11_
XXILIB    08252103493D 0   0.00000     0.00000

 35 37  0     1  0            999 V2000
  -10.4600    0.1540    8.4585 O   0  0  0  0  0  2           0  0  0
   -9.9488    0.0712    3.8057 O   0  0  0  0  0  2           0  0  0
   -6.9306   -0.0000    3.0834 O   0  0  0  0  0  2           0  0  0
   -7.3792    0.0669    7.5319 N   0  0  0  0  0  3           0  0  0
   -6.3977    0.0314    6.5959 N   0  0  0  0  0  3           0  0  0
  -10.6238    0.1274    6.0887 N   0  0  1  0  0  3           0  0  0
   -8.6044    0.0895    6.9752 C   0  0  0  0  0  4           0  0  0
   -7.0514    0.0313    5.4127 C   0  0  0  0  0  4           0  0  0
   -8.4331    0.0662    5.6255 C   0  0  0  0  0  4           0  0  0
   -9.9808    0.1281    7.3366 C   0  0  0  0  0  4           0  0  0
   -9.7272    0.0874    5.0051 C   0  0  0  0  0  4           0  0  0
   -6.3342   -0.0000    4.1574 C   0  0  0  0  0  4           0  0  0
  -12.0750    0.1607    5.9380 C   0  0  2  0  0  4           0  0  0
   -4.8257   -0.0000    4.2197 C   0  0  0  0  0  4           0  0  0
  -12.6770    1.4226    6.5749 C   0  0  0  0  0  4           0  0  0
  -12.7337   -1.1072    6.5010 C   0  0  0  0  0  4           0  0  0
   -4.2342   -0.0000    2.8129 C   0  0  0  0  0  4           0  0  0
  -14.1960    1.4580    6.4215 C   0  0  0  0  0  4           0  0  0
  -14.2521   -1.0660    6.3436 C   0  0  0  0  0  4           0  0  0
   -2.7085    0.0000    2.8129 C   0  0  0  0  0  4           0  0  0
  -14.8480    0.1917    6.9696 C   0  0  0  0  0  4           0  0  0
   -2.1171   -0.0000    1.4065 C   0  0  0  0  0  4           0  0  0
   -0.5914    0.0000    1.4065 C   0  0  0  0  0  4           0  0  0
    0.0000   -0.0000    0.0000 C   0  0  0  0  0  4           0  0  0
    1.5260   -0.0000    0.0000 C   0  0  0  0  0  4           0  0  0
    2.1174    0.0000   -1.4065 C   0  0  0  0  0  4           0  0  0
    3.6431    0.0000   -1.4065 C   0  0  0  0  0  4           0  0  0
    4.2345    0.0000   -2.8129 C   0  0  0  0  0  4           0  0  0
    5.7602    0.0000   -2.8129 C   0  0  0  0  0  4           0  0  0
    6.3516    0.0000   -4.2194 C   0  0  0  0  0  4           0  0  0
    7.8773    0.0000   -4.2194 C   0  0  0  0  0  4           0  0  0
    8.4687    0.0000   -5.6259 C   0  0  0  0  0  4           0  0  0
    9.9944    0.0000   -5.6259 C   0  0  0  0  0  4           0  0  0
   10.5858    0.0000   -7.0324 C   0  0  0  0  0  4           0  0  0
   12.1071    0.0000   -7.0320 C   0  0  0  0  0  4           0  0  0
  1 10  2  0     0  0
  2 11  2  0     0  0
  3 12  2  0     0  0
  4  5  1  0     0  0
  4  7  1  0     0  0
  5  8  2  0     0  0
  6 10  1  0     0  0
  6 11  1  0     0  0
  6 13  1  0     0  0
  7  9  2  0     0  0
  7 10  1  0     0  0
  8  9  1  0     0  0
  8 12  1  0     0  0
  9 11  1  0     0  0
 12 14  1  0     0  0
 13 15  1  0     0  0
 13 16  1  0     0  0
 14 17  1  0     0  0
 15 18  1  0     0  0
 16 19  1  0     0  0
 17 20  1  0     0  0
 18 21  1  0     0  0
 19 21  1  0     0  0
 20 22  1  0     0  0
 22 23  1  0     0  0
 23 24  1  0     0  0
 24 25  1  0     0  0
 25 26  1  0     0  0
 26 27  1  0     0  0
 27 28  1  0     0  0
 28 29  1  0     0  0
 29 30  1  0     0  0
 30 31  1  0     0  0
 31 32  1  0     0  0
 32 33  1  0     0  0
 33 34  1  0     0  0
 34 35  1  0     0  0
M  END
> <standard_type>
IC50

> <# Confs.>
25

> <canonical_smiles>
O=C1C2=C(C(C(CCCCCCCCCCCCCCCCC)=O)=NN2)C(N1C3CCCCC3)=O

> <standard_relation>
=

> <predicted_activity_value>
5.795880017344075

> <actual_activity_value>
5.534617148551582

> <Compound>
11

> <publication_ID>
nan

> <standard_units>
nM

> hash
4736667858980123097

$$$$
11_
XXILIB    08252103493D 0   0.00000     0.00000

 35 37  0     1  0            999 V2000
  -10.2822   -4.4675    4.1487 O   0  0  0  0  0  2           0  0  0
   -9.9601    0.2024    4.0791 O   0  0  0  0  0  2           0  0  0
   -6.9739    1.0485    4.1310 O   0  0  0  0  0  2           0  0  0
   -7.2412   -3.4147    4.1870 N   0  0  0  0  0  3           0  0  0
   -6.2984   -2.4390    4.1903 N   0  0  0  0  0  3           0  0  0
  -10.5423   -2.1065    4.1113 N   0  0  1  0  0  3           0  0  0
   -8.4882   -2.9090    4.1582 C   0  0  0  0  0  4           0  0  0
   -6.9997   -1.2838    4.1613 C   0  0  0  0  0  4           0  0  0
   -8.3718   -1.5534    4.1396 C   0  0  0  0  0  4           0  0  0
   -9.8490   -3.3268    4.1407 C   0  0  0  0  0  4           0  0  0
   -9.6901   -0.9868    4.1064 C   0  0  0  0  0  4           0  0  0
   -6.3342   -0.0000    4.1574 C   0  0  0  0  0  4           0  0  0
  -11.9985   -2.0157    4.0846 C   0  0  2  0  0  4           0  0  0
   -4.8257   -0.0000    4.2197 C   0  0  0  0  0  4           0  0  0
  -12.4926   -1.2846    2.8269 C   0  0  0  0  0  4           0  0  0
  -12.5498   -1.3553    5.3567 C   0  0  0  0  0  4           0  0  0
   -4.2342   -0.0000    2.8129 C   0  0  0  0  0  4           0  0  0
  -14.0162   -1.1852    2.7983 C   0  0  0  0  0  4           0  0  0
  -14.0735   -1.2600    5.3223 C   0  0  0  0  0  4           0  0  0
   -2.7085    0.0000    2.8129 C   0  0  0  0  0  4           0  0  0
  -14.5635   -0.5407    4.0688 C   0  0  0  0  0  4           0  0  0
   -2.1171   -0.0000    1.4065 C   0  0  0  0  0  4           0  0  0
   -0.5914    0.0000    1.4065 C   0  0  0  0  0  4           0  0  0
    0.0000   -0.0000    0.0000 C   0  0  0  0  0  4           0  0  0
    1.5260   -0.0000    0.0000 C   0  0  0  0  0  4           0  0  0
    2.1174    0.0000   -1.4065 C   0  0  0  0  0  4           0  0  0
    3.6431    0.0000   -1.4065 C   0  0  0  0  0  4           0  0  0
    4.2345    0.0000   -2.8129 C   0  0  0  0  0  4           0  0  0
    5.7602    0.0000   -2.8129 C   0  0  0  0  0  4           0  0  0
    6.3516    0.0000   -4.2194 C   0  0  0  0  0  4           0  0  0
    7.8773    0.0000   -4.2194 C   0  0  0  0  0  4           0  0  0
    8.4687    0.0000   -5.6259 C   0  0  0  0  0  4           0  0  0
    9.9944    0.0000   -5.6259 C   0  0  0  0  0  4           0  0  0
   10.5858    0.0000   -7.0324 C   0  0  0  0  0  4           0  0  0
   12.1071    0.0000   -7.0320 C   0  0  0  0  0  4           0  0  0
  1 10  2  0     0  0
  2 11  2  0     0  0
  3 12  2  0     0  0
  4  5  1  0     0  0
  4  7  1  0     0  0
  5  8  2  0     0  0
  6 10  1  0     0  0
  6 11  1  0     0  0
  6 13  1  0     0  0
  7  9  2  0     0  0
  7 10  1  0     0  0
  8  9  1  0     0  0
  8 12  1  0     0  0
  9 11  1  0     0  0
 12 14  1  0     0  0
 13 15  1  0     0  0
 13 16  1  0     0  0
 14 17  1  0     0  0
 15 18  1  0     0  0
 16 19  1  0     0  0
 17 20  1  0     0  0
 18 21  1  0     0  0
 19 21  1  0     0  0
 20 22  1  0     0  0
 22 23  1  0     0  0
 23 24  1  0     0  0
 24 25  1  0     0  0
 25 26  1  0     0  0
 26 27  1  0     0  0
 27 28  1  0     0  0
 28 29  1  0     0  0
 29 30  1  0     0  0
 30 31  1  0     0  0
 31 32  1  0     0  0
 32 33  1  0     0  0
 33 34  1  0     0  0
 34 35  1  0     0  0
M  END
> <standard_type>
IC50

> <# Confs.>
25

> <canonical_smiles>
O=C1C2=C(C(C(CCCCCCCCCCCCCCCCC)=O)=NN2)C(N1C3CCCCC3)=O

> <standard_relation>
=

> <predicted_activity_value>
5.795880017344075

> <actual_activity_value>
5.534617148551582

> <Compound>
11

> <publication_ID>
nan

> <standard_units>
nM

> hash
4736667858980123097

$$$$
11_
XXILIB    08252103493D 0   0.00000     0.00000

 35 37  0     1  0            999 V2000
  -10.2822   -4.4675    4.1487 O   0  0  0  0  0  2           0  0  0
   -9.9601    0.2024    4.0791 O   0  0  0  0  0  2           0  0  0
   -6.9739    1.0485    4.1310 O   0  0  0  0  0  2           0  0  0
   -7.2412   -3.4147    4.1870 N   0  0  0  0  0  3           0  0  0
   -6.2984   -2.4390    4.1903 N   0  0  0  0  0  3           0  0  0
  -10.5423   -2.1065    4.1113 N   0  0  1  0  0  3           0  0  0
   -8.4882   -2.9090    4.1582 C   0  0  0  0  0  4           0  0  0
   -6.9997   -1.2838    4.1613 C   0  0  0  0  0  4           0  0  0
   -8.3718   -1.5534    4.1396 C   0  0  0  0  0  4           0  0  0
   -9.8490   -3.3268    4.1407 C   0  0  0  0  0  4           0  0  0
   -9.6901   -0.9868    4.1064 C   0  0  0  0  0  4           0  0  0
   -6.3342   -0.0000    4.1574 C   0  0  0  0  0  4           0  0  0
  -11.9985   -2.0157    4.0846 C   0  0  2  0  0  4           0  0  0
   -4.8257   -0.0000    4.2197 C   0  0  0  0  0  4           0  0  0
  -12.6253   -2.6769    5.3217 C   0  0  0  0  0  4           0  0  0
  -12.5806   -2.6054    2.7916 C   0  0  0  0  0  4           0  0  0
   -4.2342   -0.0000    2.8129 C   0  0  0  0  0  4           0  0  0
  -14.1495   -2.5863    5.2942 C   0  0  0  0  0  4           0  0  0
  -14.1046   -2.5107    2.7700 C   0  0  0  0  0  4           0  0  0
   -2.7085    0.0000    2.8129 C   0  0  0  0  0  4           0  0  0
  -14.7256   -3.1607    4.0031 C   0  0  0  0  0  4           0  0  0
   -2.1171   -0.0000    1.4065 C   0  0  0  0  0  4           0  0  0
   -0.5914    0.0000    1.4065 C   0  0  0  0  0  4           0  0  0
    0.0000   -0.0000    0.0000 C   0  0  0  0  0  4           0  0  0
    1.5260   -0.0000    0.0000 C   0  0  0  0  0  4           0  0  0
    2.1174    0.0000   -1.4065 C   0  0  0  0  0  4           0  0  0
    3.6431    0.0000   -1.4065 C   0  0  0  0  0  4           0  0  0
    4.2345    0.0000   -2.8129 C   0  0  0  0  0  4           0  0  0
    5.7602    0.0000   -2.8129 C   0  0  0  0  0  4           0  0  0
    6.3516    0.0000   -4.2194 C   0  0  0  0  0  4           0  0  0
    7.8773    0.0000   -4.2194 C   0  0  0  0  0  4           0  0  0
    8.4687    0.0000   -5.6259 C   0  0  0  0  0  4           0  0  0
    9.9944    0.0000   -5.6259 C   0  0  0  0  0  4           0  0  0
   10.5858    0.0000   -7.0324 C   0  0  0  0  0  4           0  0  0
   12.1071    0.0000   -7.0320 C   0  0  0  0  0  4           0  0  0
  1 10  2  0     0  0
  2 11  2  0     0  0
  3 12  2  0     0  0
  4  5  1  0     0  0
  4  7  1  0     0  0
  5  8  2  0     0  0
  6 10  1  0     0  0
  6 11  1  0     0  0
  6 13  1  0     0  0
  7  9  2  0     0  0
  7 10  1  0     0  0
  8  9  1  0     0  0
  8 12  1  0     0  0
  9 11  1  0     0  0
 12 14  1  0     0  0
 13 15  1  0     0  0
 13 16  1  0     0  0
 14 17  1  0     0  0
 15 18  1  0     0  0
 16 19  1  0     0  0
 17 20  1  0     0  0
 18 21  1  0     0  0
 19 21  1  0     0  0
 20 22  1  0     0  0
 22 23  1  0     0  0
 23 24  1  0     0  0
 24 25  1  0     0  0
 25 26  1  0     0  0
 26 27  1  0     0  0
 27 28  1  0     0  0
 28 29  1  0     0  0
 29 30  1  0     0  0
 30 31  1  0     0  0
 31 32  1  0     0  0
 32 33  1  0     0  0
 33 34  1  0     0  0
 34 35  1  0     0  0
M  END
> <standard_type>
IC50

> <# Confs.>
25

> <canonical_smiles>
O=C1C2=C(C(C(CCCCCCCCCCCCCCCCC)=O)=NN2)C(N1C3CCCCC3)=O

> <standard_relation>
=

> <predicted_activity_value>
5.795880017344075

> <actual_activity_value>
5.534617148551582

> <Compound>
11

> <publication_ID>
nan

> <standard_units>
nM

> hash
4736667858980123097

$$$$
11_
XXILIB    08252103493D 0   0.00000     0.00000

 35 37  0     1  0            999 V2000
  -10.2695    4.4675    3.8409 O   0  0  0  0  0  2           0  0  0
   -9.9542   -0.2024    3.9368 O   0  0  0  0  0  2           0  0  0
   -6.9739   -1.0485    4.1310 O   0  0  0  0  0  2           0  0  0
   -7.2357    3.4147    4.0533 N   0  0  0  0  0  3           0  0  0
   -6.2958    2.4390    4.1276 N   0  0  0  0  0  3           0  0  0
  -10.5318    2.1065    3.8567 N   0  0  1  0  0  3           0  0  0
   -8.4808    2.9090    3.9793 C   0  0  0  0  0  4           0  0  0
   -6.9972    1.2838    4.0988 C   0  0  0  0  0  4           0  0  0
   -8.3663    1.5534    4.0073 C   0  0  0  0  0  4           0  0  0
   -9.8384    3.3268    3.8846 C   0  0  0  0  0  4           0  0  0
   -9.6829    0.9868    3.9318 C   0  0  0  0  0  4           0  0  0
   -6.3342   -0.0000    4.1574 C   0  0  0  0  0  4           0  0  0
  -11.9852    2.0157    3.7634 C   0  0  2  0  0  4           0  0  0
   -4.8257   -0.0000    4.2197 C   0  0  0  0  0  4           0  0  0
  -12.5813    1.2846    4.9761 C   0  0  0  0  0  4           0  0  0
  -12.4299    1.3553    2.4502 C   0  0  0  0  0  4           0  0  0
   -4.2342   -0.0000    2.8129 C   0  0  0  0  0  4           0  0  0
  -14.1021    1.1852    4.8791 C   0  0  0  0  0  4           0  0  0
  -13.9513    1.2600    2.3589 C   0  0  0  0  0  4           0  0  0
   -2.7085    0.0000    2.8129 C   0  0  0  0  0  4           0  0  0
  -14.5428    0.5407    3.5678 C   0  0  0  0  0  4           0  0  0
   -2.1171   -0.0000    1.4065 C   0  0  0  0  0  4           0  0  0
   -0.5914    0.0000    1.4065 C   0  0  0  0  0  4           0  0  0
    0.0000   -0.0000    0.0000 C   0  0  0  0  0  4           0  0  0
    1.5260   -0.0000    0.0000 C   0  0  0  0  0  4           0  0  0
    2.1174    0.0000   -1.4065 C   0  0  0  0  0  4           0  0  0
    3.6431    0.0000   -1.4065 C   0  0  0  0  0  4           0  0  0
    4.2345    0.0000   -2.8129 C   0  0  0  0  0  4           0  0  0
    5.7602    0.0000   -2.8129 C   0  0  0  0  0  4           0  0  0
    6.3516    0.0000   -4.2194 C   0  0  0  0  0  4           0  0  0
    7.8773    0.0000   -4.2194 C   0  0  0  0  0  4           0  0  0
    8.4687    0.0000   -5.6259 C   0  0  0  0  0  4           0  0  0
    9.9944    0.0000   -5.6259 C   0  0  0  0  0  4           0  0  0
   10.5858    0.0000   -7.0324 C   0  0  0  0  0  4           0  0  0
   12.1071    0.0000   -7.0320 C   0  0  0  0  0  4           0  0  0
  1 10  2  0     0  0
  2 11  2  0     0  0
  3 12  2  0     0  0
  4  5  1  0     0  0
  4  7  1  0     0  0
  5  8  2  0     0  0
  6 10  1  0     0  0
  6 11  1  0     0  0
  6 13  1  0     0  0
  7  9  2  0     0  0
  7 10  1  0     0  0
  8  9  1  0     0  0
  8 12  1  0     0  0
  9 11  1  0     0  0
 12 14  1  0     0  0
 13 15  1  0     0  0
 13 16  1  0     0  0
 14 17  1  0     0  0
 15 18  1  0     0  0
 16 19  1  0     0  0
 17 20  1  0     0  0
 18 21  1  0     0  0
 19 21  1  0     0  0
 20 22  1  0     0  0
 22 23  1  0     0  0
 23 24  1  0     0  0
 24 25  1  0     0  0
 25 26  1  0     0  0
 26 27  1  0     0  0
 27 28  1  0     0  0
 28 29  1  0     0  0
 29 30  1  0     0  0
 30 31  1  0     0  0
 31 32  1  0     0  0
 32 33  1  0     0  0
 33 34  1  0     0  0
 34 35  1  0     0  0
M  END
> <standard_type>
IC50

> <# Confs.>
25

> <canonical_smiles>
O=C1C2=C(C(C(CCCCCCCCCCCCCCCCC)=O)=NN2)C(N1C3CCCCC3)=O

> <standard_relation>
=

> <predicted_activity_value>
5.795880017344075

> <actual_activity_value>
5.534617148551582

> <Compound>
11

> <publication_ID>
nan

> <standard_units>
nM

> hash
4736667858980123097

$$$$
11_
XXILIB    08252103493D 0   0.00000     0.00000

 35 37  0     1  0            999 V2000
  -10.4385   -2.1004    7.9374 O   0  0  0  0  0  2           0  0  0
   -9.9514    0.1629    3.8684 O   0  0  0  0  0  2           0  0  0
   -6.9364    0.5243    3.2238 O   0  0  0  0  0  2           0  0  0
   -7.3618   -1.6494    7.1082 N   0  0  0  0  0  3           0  0  0
   -6.3849   -1.1923    6.2851 N   0  0  0  0  0  3           0  0  0
  -10.6148   -0.9429    5.8704 N   0  0  1  0  0  3           0  0  0
   -8.5902   -1.3770    6.6305 C   0  0  0  0  0  4           0  0  0
   -7.0449   -0.6148    5.2565 C   0  0  0  0  0  4           0  0  0
   -8.4259   -0.7194    5.4507 C   0  0  0  0  0  4           0  0  0
   -9.9651   -1.5524    6.9553 C   0  0  0  0  0  4           0  0  0
   -9.7236   -0.4177    4.9167 C   0  0  0  0  0  4           0  0  0
   -6.3342   -0.0000    4.1574 C   0  0  0  0  0  4           0  0  0
  -12.0671   -0.8687    5.7484 C   0  0  2  0  0  4           0  0  0
   -4.8257   -0.0000    4.2197 C   0  0  0  0  0  4           0  0  0
  -12.6915   -0.1064    6.9272 C   0  0  0  0  0  4           0  0  0
  -12.6965   -2.2615    5.5991 C   0  0  0  0  0  4           0  0  0
   -4.2342   -0.0000    2.8129 C   0  0  0  0  0  4           0  0  0
  -14.2117   -0.0305    6.8037 C   0  0  0  0  0  4           0  0  0
  -14.2162   -2.1785    5.4750 C   0  0  0  0  0  4           0  0  0
   -2.7085    0.0000    2.8129 C   0  0  0  0  0  4           0  0  0
  -14.8345   -1.4143    6.6422 C   0  0  0  0  0  4           0  0  0
   -2.1171   -0.0000    1.4065 C   0  0  0  0  0  4           0  0  0
   -0.5914    0.0000    1.4065 C   0  0  0  0  0  4           0  0  0
    0.0000   -0.0000    0.0000 C   0  0  0  0  0  4           0  0  0
    1.5260   -0.0000    0.0000 C   0  0  0  0  0  4           0  0  0
    2.1174    0.0000   -1.4065 C   0  0  0  0  0  4           0  0  0
    3.6431    0.0000   -1.4065 C   0  0  0  0  0  4           0  0  0
    4.2345    0.0000   -2.8129 C   0  0  0  0  0  4           0  0  0
    5.7602    0.0000   -2.8129 C   0  0  0  0  0  4           0  0  0
    6.3516    0.0000   -4.2194 C   0  0  0  0  0  4           0  0  0
    7.8773    0.0000   -4.2194 C   0  0  0  0  0  4           0  0  0
    8.4687    0.0000   -5.6259 C   0  0  0  0  0  4           0  0  0
    9.9944    0.0000   -5.6259 C   0  0  0  0  0  4           0  0  0
   10.5858    0.0000   -7.0324 C   0  0  0  0  0  4           0  0  0
   12.1071    0.0000   -7.0320 C   0  0  0  0  0  4           0  0  0
  1 10  2  0     0  0
  2 11  2  0     0  0
  3 12  2  0     0  0
  4  5  1  0     0  0
  4  7  1  0     0  0
  5  8  2  0     0  0
  6 10  1  0     0  0
  6 11  1  0     0  0
  6 13  1  0     0  0
  7  9  2  0     0  0
  7 10  1  0     0  0
  8  9  1  0     0  0
  8 12  1  0     0  0
  9 11  1  0     0  0
 12 14  1  0     0  0
 13 15  1  0     0  0
 13 16  1  0     0  0
 14 17  1  0     0  0
 15 18  1  0     0  0
 16 19  1  0     0  0
 17 20  1  0     0  0
 18 21  1  0     0  0
 19 21  1  0     0  0
 20 22  1  0     0  0
 22 23  1  0     0  0
 23 24  1  0     0  0
 24 25  1  0     0  0
 25 26  1  0     0  0
 26 27  1  0     0  0
 27 28  1  0     0  0
 28 29  1  0     0  0
 29 30  1  0     0  0
 30 31  1  0     0  0
 31 32  1  0     0  0
 32 33  1  0     0  0
 33 34  1  0     0  0
 34 35  1  0     0  0
M  END
> <standard_type>
IC50

> <# Confs.>
25

> <canonical_smiles>
O=C1C2=C(C(C(CCCCCCCCCCCCCCCCC)=O)=NN2)C(N1C3CCCCC3)=O

> <standard_relation>
=

> <predicted_activity_value>
5.795880017344075

> <actual_activity_value>
5.534617148551582

> <Compound>
11

> <publication_ID>
nan

> <standard_units>
nM

> hash
4736667858980123097

$$$$
11_
XXILIB    08252103493D 0   0.00000     0.00000

 35 37  0     1  0            999 V2000
  -10.2695    4.4675    3.8409 O   0  0  0  0  0  2           0  0  0
   -9.9542   -0.2024    3.9368 O   0  0  0  0  0  2           0  0  0
   -6.9739   -1.0485    4.1310 O   0  0  0  0  0  2           0  0  0
   -7.2357    3.4147    4.0533 N   0  0  0  0  0  3           0  0  0
   -6.2958    2.4390    4.1276 N   0  0  0  0  0  3           0  0  0
  -10.5318    2.1065    3.8567 N   0  0  1  0  0  3           0  0  0
   -8.4808    2.9090    3.9793 C   0  0  0  0  0  4           0  0  0
   -6.9972    1.2838    4.0988 C   0  0  0  0  0  4           0  0  0
   -8.3663    1.5534    4.0073 C   0  0  0  0  0  4           0  0  0
   -9.8384    3.3268    3.8846 C   0  0  0  0  0  4           0  0  0
   -9.6829    0.9868    3.9318 C   0  0  0  0  0  4           0  0  0
   -6.3342   -0.0000    4.1574 C   0  0  0  0  0  4           0  0  0
  -11.9852    2.0157    3.7634 C   0  0  2  0  0  4           0  0  0
   -4.8257   -0.0000    4.2197 C   0  0  0  0  0  4           0  0  0
  -12.5080    2.6769    2.4789 C   0  0  0  0  0  4           0  0  0
  -12.6719    2.6054    5.0041 C   0  0  0  0  0  4           0  0  0
   -4.2342   -0.0000    2.8129 C   0  0  0  0  0  4           0  0  0
  -14.0292    2.5863    2.3807 C   0  0  0  0  0  4           0  0  0
  -14.1925    2.5107    4.9001 C   0  0  0  0  0  4           0  0  0
   -2.7085    0.0000    2.8129 C   0  0  0  0  0  4           0  0  0
  -14.7098    3.1607    3.6200 C   0  0  0  0  0  4           0  0  0
   -2.1171   -0.0000    1.4065 C   0  0  0  0  0  4           0  0  0
   -0.5914    0.0000    1.4065 C   0  0  0  0  0  4           0  0  0
    0.0000   -0.0000    0.0000 C   0  0  0  0  0  4           0  0  0
    1.5260   -0.0000    0.0000 C   0  0  0  0  0  4           0  0  0
    2.1174    0.0000   -1.4065 C   0  0  0  0  0  4           0  0  0
    3.6431    0.0000   -1.4065 C   0  0  0  0  0  4           0  0  0
    4.2345    0.0000   -2.8129 C   0  0  0  0  0  4           0  0  0
    5.7602    0.0000   -2.8129 C   0  0  0  0  0  4           0  0  0
    6.3516    0.0000   -4.2194 C   0  0  0  0  0  4           0  0  0
    7.8773    0.0000   -4.2194 C   0  0  0  0  0  4           0  0  0
    8.4687    0.0000   -5.6259 C   0  0  0  0  0  4           0  0  0
    9.9944    0.0000   -5.6259 C   0  0  0  0  0  4           0  0  0
   10.5858    0.0000   -7.0324 C   0  0  0  0  0  4           0  0  0
   12.1071    0.0000   -7.0320 C   0  0  0  0  0  4           0  0  0
  1 10  2  0     0  0
  2 11  2  0     0  0
  3 12  2  0     0  0
  4  5  1  0     0  0
  4  7  1  0     0  0
  5  8  2  0     0  0
  6 10  1  0     0  0
  6 11  1  0     0  0
  6 13  1  0     0  0
  7  9  2  0     0  0
  7 10  1  0     0  0
  8  9  1  0     0  0
  8 12  1  0     0  0
  9 11  1  0     0  0
 12 14  1  0     0  0
 13 15  1  0     0  0
 13 16  1  0     0  0
 14 17  1  0     0  0
 15 18  1  0     0  0
 16 19  1  0     0  0
 17 20  1  0     0  0
 18 21  1  0     0  0
 19 21  1  0     0  0
 20 22  1  0     0  0
 22 23  1  0     0  0
 23 24  1  0     0  0
 24 25  1  0     0  0
 25 26  1  0     0  0
 26 27  1  0     0  0
 27 28  1  0     0  0
 28 29  1  0     0  0
 29 30  1  0     0  0
 30 31  1  0     0  0
 31 32  1  0     0  0
 32 33  1  0     0  0
 33 34  1  0     0  0
 34 35  1  0     0  0
M  END
> <standard_type>
IC50

> <# Confs.>
25

> <canonical_smiles>
O=C1C2=C(C(C(CCCCCCCCCCCCCCCCC)=O)=NN2)C(N1C3CCCCC3)=O

> <standard_relation>
=

> <predicted_activity_value>
5.795880017344075

> <actual_activity_value>
5.534617148551582

> <Compound>
11

> <publication_ID>
nan

> <standard_units>
nM

> hash
4736667858980123097

$$$$
11_
XXILIB    08252103493D 0   0.00000     0.00000

 35 37  0     1  0            999 V2000
   -6.8554    6.6137    5.5895 O   0  0  0  0  0  2           0  0  0
   -3.1785    4.0449    6.9305 O   0  0  0  0  0  2           0  0  0
   -3.3511    1.2205    5.6543 O   0  0  0  0  0  2           0  0  0
   -6.8707    3.6467    4.3428 N   0  0  0  0  0  3           0  0  0
   -6.3525    2.4051    4.1676 N   0  0  0  0  0  3           0  0  0
   -4.8791    5.6533    6.4924 N   0  0  1  0  0  3           0  0  0
   -6.1091    4.3990    5.1585 C   0  0  0  0  0  4           0  0  0
   -5.2221    2.3971    4.9087 C   0  0  0  0  0  4           0  0  0
   -5.0489    3.6345    5.5368 C   0  0  0  0  0  4           0  0  0
   -6.0595    5.7002    5.7340 C   0  0  0  0  0  4           0  0  0
   -4.2167    4.4149    6.4078 C   0  0  0  0  0  4           0  0  0
   -4.3780    1.2252    4.9799 C   0  0  0  0  0  4           0  0  0
   -4.3923    6.7795    7.2826 C   0  0  2  0  0  4           0  0  0
   -4.8257   -0.0000    4.2197 C   0  0  0  0  0  4           0  0  0
   -2.9989    7.2306    6.8185 C   0  0  0  0  0  4           0  0  0
   -4.3955    6.4624    8.7853 C   0  0  0  0  0  4           0  0  0
   -4.2342    0.0000    2.8129 C   0  0  0  0  0  4           0  0  0
   -2.4858    8.4068    7.6464 C   0  0  0  0  0  4           0  0  0
   -3.8825    7.6427    9.6072 C   0  0  0  0  0  4           0  0  0
   -2.7085   -0.0000    2.8129 C   0  0  0  0  0  4           0  0  0
   -2.5018    8.0950    9.1402 C   0  0  0  0  0  4           0  0  0
   -2.1171    0.0000    1.4065 C   0  0  0  0  0  4           0  0  0
   -0.5914    0.0000    1.4065 C   0  0  0  0  0  4           0  0  0
    0.0000    0.0000    0.0000 C   0  0  0  0  0  4           0  0  0
    1.5260   -0.0000    0.0000 C   0  0  0  0  0  4           0  0  0
    2.1174    0.0000   -1.4065 C   0  0  0  0  0  4           0  0  0
    3.6431    0.0000   -1.4065 C   0  0  0  0  0  4           0  0  0
    4.2345    0.0000   -2.8129 C   0  0  0  0  0  4           0  0  0
    5.7602    0.0000   -2.8129 C   0  0  0  0  0  4           0  0  0
    6.3516    0.0000   -4.2194 C   0  0  0  0  0  4           0  0  0
    7.8773    0.0000   -4.2194 C   0  0  0  0  0  4           0  0  0
    8.4687    0.0000   -5.6259 C   0  0  0  0  0  4           0  0  0
    9.9944    0.0000   -5.6259 C   0  0  0  0  0  4           0  0  0
   10.5858    0.0000   -7.0324 C   0  0  0  0  0  4           0  0  0
   12.1071    0.0000   -7.0320 C   0  0  0  0  0  4           0  0  0
  1 10  2  0     0  0
  2 11  2  0     0  0
  3 12  2  0     0  0
  4  5  1  0     0  0
  4  7  1  0     0  0
  5  8  2  0     0  0
  6 10  1  0     0  0
  6 11  1  0     0  0
  6 13  1  0     0  0
  7  9  2  0     0  0
  7 10  1  0     0  0
  8  9  1  0     0  0
  8 12  1  0     0  0
  9 11  1  0     0  0
 12 14  1  0     0  0
 13 15  1  0     0  0
 13 16  1  0     0  0
 14 17  1  0     0  0
 15 18  1  0     0  0
 16 19  1  0     0  0
 17 20  1  0     0  0
 18 21  1  0     0  0
 19 21  1  0     0  0
 20 22  1  0     0  0
 22 23  1  0     0  0
 23 24  1  0     0  0
 24 25  1  0     0  0
 25 26  1  0     0  0
 26 27  1  0     0  0
 27 28  1  0     0  0
 28 29  1  0     0  0
 29 30  1  0     0  0
 30 31  1  0     0  0
 31 32  1  0     0  0
 32 33  1  0     0  0
 33 34  1  0     0  0
 34 35  1  0     0  0
M  END
> <standard_type>
IC50

> <# Confs.>
25

> <canonical_smiles>
O=C1C2=C(C(C(CCCCCCCCCCCCCCCCC)=O)=NN2)C(N1C3CCCCC3)=O

> <standard_relation>
=

> <predicted_activity_value>
5.795880017344075

> <actual_activity_value>
5.534617148551582

> <Compound>
11

> <publication_ID>
nan

> <standard_units>
nM

> hash
4736667858980123097

$$$$
11_
XXILIB    08252103493D 0   0.00000     0.00000

 35 37  0     1  0            999 V2000
  -10.4322    2.3671    7.7835 O   0  0  0  0  0  2           0  0  0
   -9.9485   -0.0395    3.7972 O   0  0  0  0  0  2           0  0  0
   -6.9364   -0.5243    3.2238 O   0  0  0  0  0  2           0  0  0
   -7.3590    1.7653    7.0414 N   0  0  0  0  0  3           0  0  0
   -6.3836    1.2466    6.2537 N   0  0  0  0  0  3           0  0  0
  -10.6096    1.1636    5.7431 N   0  0  1  0  0  3           0  0  0
   -8.5865    1.5320    6.5411 C   0  0  0  0  0  4           0  0  0
   -7.0436    0.6690    5.2252 C   0  0  0  0  0  4           0  0  0
   -8.4231    0.8340    5.3845 C   0  0  0  0  0  4           0  0  0
   -9.9598    1.7743    6.8272 C   0  0  0  0  0  4           0  0  0
   -9.7200    0.5691    4.8294 C   0  0  0  0  0  4           0  0  0
   -6.3342   -0.0000    4.1574 C   0  0  0  0  0  4           0  0  0
  -12.0605    1.1470    5.5879 C   0  0  2  0  0  4           0  0  0
   -4.8257   -0.0000    4.2197 C   0  0  0  0  0  4           0  0  0
  -12.6329    2.5704    5.5059 C   0  0  0  0  0  4           0  0  0
  -12.7421    0.3438    6.7053 C   0  0  0  0  0  4           0  0  0
   -4.2342   -0.0000    2.8129 C   0  0  0  0  0  4           0  0  0
  -14.1516    2.5558    5.3470 C   0  0  0  0  0  4           0  0  0
  -14.2602    0.3322    6.5400 C   0  0  0  0  0  4           0  0  0
   -2.7085    0.0000    2.8129 C   0  0  0  0  0  4           0  0  0
  -14.8266    1.7464    6.4507 C   0  0  0  0  0  4           0  0  0
   -2.1171   -0.0000    1.4065 C   0  0  0  0  0  4           0  0  0
   -0.5914    0.0000    1.4065 C   0  0  0  0  0  4           0  0  0
    0.0000   -0.0000    0.0000 C   0  0  0  0  0  4           0  0  0
    1.5260   -0.0000    0.0000 C   0  0  0  0  0  4           0  0  0
    2.1174    0.0000   -1.4065 C   0  0  0  0  0  4           0  0  0
    3.6431    0.0000   -1.4065 C   0  0  0  0  0  4           0  0  0
    4.2345    0.0000   -2.8129 C   0  0  0  0  0  4           0  0  0
    5.7602    0.0000   -2.8129 C   0  0  0  0  0  4           0  0  0
    6.3516    0.0000   -4.2194 C   0  0  0  0  0  4           0  0  0
    7.8773    0.0000   -4.2194 C   0  0  0  0  0  4           0  0  0
    8.4687    0.0000   -5.6259 C   0  0  0  0  0  4           0  0  0
    9.9944    0.0000   -5.6259 C   0  0  0  0  0  4           0  0  0
   10.5858    0.0000   -7.0324 C   0  0  0  0  0  4           0  0  0
   12.1071    0.0000   -7.0320 C   0  0  0  0  0  4           0  0  0
  1 10  2  0     0  0
  2 11  2  0     0  0
  3 12  2  0     0  0
  4  5  1  0     0  0
  4  7  1  0     0  0
  5  8  2  0     0  0
  6 10  1  0     0  0
  6 11  1  0     0  0
  6 13  1  0     0  0
  7  9  2  0     0  0
  7 10  1  0     0  0
  8  9  1  0     0  0
  8 12  1  0     0  0
  9 11  1  0     0  0
 12 14  1  0     0  0
 13 15  1  0     0  0
 13 16  1  0     0  0
 14 17  1  0     0  0
 15 18  1  0     0  0
 16 19  1  0     0  0
 17 20  1  0     0  0
 18 21  1  0     0  0
 19 21  1  0     0  0
 20 22  1  0     0  0
 22 23  1  0     0  0
 23 24  1  0     0  0
 24 25  1  0     0  0
 25 26  1  0     0  0
 26 27  1  0     0  0
 27 28  1  0     0  0
 28 29  1  0     0  0
 29 30  1  0     0  0
 30 31  1  0     0  0
 31 32  1  0     0  0
 32 33  1  0     0  0
 33 34  1  0     0  0
 34 35  1  0     0  0
M  END
> <standard_type>
IC50

> <# Confs.>
25

> <canonical_smiles>
O=C1C2=C(C(C(CCCCCCCCCCCCCCCCC)=O)=NN2)C(N1C3CCCCC3)=O

> <standard_relation>
=

> <predicted_activity_value>
5.795880017344075

> <actual_activity_value>
5.534617148551582

> <Compound>
11

> <publication_ID>
nan

> <standard_units>
nM

> hash
4736667858980123097

$$$$
11_
XXILIB    08252103493D 0   0.00000     0.00000

 35 37  0     1  0            999 V2000
  -10.4600    4.8122   -0.1432 O   0  0  0  0  0  2           0  0  0
   -9.9488    0.8241    2.2549 O   0  0  0  0  0  2           0  0  0
   -6.9306    0.2343    2.6777 O   0  0  0  0  0  2           0  0  0
   -7.3792    4.0533    0.3955 N   0  0  0  0  0  3           0  0  0
   -6.3977    3.2604    0.8943 N   0  0  0  0  0  3           0  0  0
  -10.6238    2.7732    1.0647 N   0  0  1  0  0  3           0  0  0
   -8.6044    3.5599    0.6543 C   0  0  0  0  0  4           0  0  0
   -7.0514    2.2358    1.4860 C   0  0  0  0  0  4           0  0  0
   -8.4331    2.4027    1.3493 C   0  0  0  0  0  4           0  0  0
   -9.9808    3.8535    0.4402 C   0  0  0  0  0  4           0  0  0
   -9.7272    1.8548    1.6412 C   0  0  0  0  0  4           0  0  0
   -6.3342    1.1644    2.1407 C   0  0  0  0  0  4           0  0  0
  -12.0750    2.6260    1.1113 C   0  0  2  0  0  4           0  0  0
   -4.8257    1.2183    2.1096 C   0  0  0  0  0  4           0  0  0
  -12.5899    2.5920    2.5584 C   0  0  0  0  0  4           0  0  0
  -12.5458    1.3899    0.3310 C   0  0  0  0  0  4           0  0  0
   -4.2342   -0.0000    2.8129 C   0  0  0  0  0  4           0  0  0
  -14.1080    2.4345    2.6097 C   0  0  0  0  0  4           0  0  0
  -14.0644    1.2388    0.3854 C   0  0  0  0  0  4           0  0  0
   -2.7085   -0.0000    2.8129 C   0  0  0  0  0  4           0  0  0
  -14.5755    1.2132    1.8230 C   0  0  0  0  0  4           0  0  0
   -2.1171   -0.0000    1.4065 C   0  0  0  0  0  4           0  0  0
   -0.5914   -0.0000    1.4065 C   0  0  0  0  0  4           0  0  0
    0.0000    0.0000    0.0000 C   0  0  0  0  0  4           0  0  0
    1.5260   -0.0000    0.0000 C   0  0  0  0  0  4           0  0  0
    2.1174    0.0000   -1.4065 C   0  0  0  0  0  4           0  0  0
    3.6431    0.0000   -1.4065 C   0  0  0  0  0  4           0  0  0
    4.2345    0.0000   -2.8129 C   0  0  0  0  0  4           0  0  0
    5.7602    0.0000   -2.8129 C   0  0  0  0  0  4           0  0  0
    6.3516    0.0000   -4.2194 C   0  0  0  0  0  4           0  0  0
    7.8773    0.0000   -4.2194 C   0  0  0  0  0  4           0  0  0
    8.4687    0.0000   -5.6259 C   0  0  0  0  0  4           0  0  0
    9.9944    0.0000   -5.6259 C   0  0  0  0  0  4           0  0  0
   10.5858    0.0000   -7.0324 C   0  0  0  0  0  4           0  0  0
   12.1071    0.0000   -7.0320 C   0  0  0  0  0  4           0  0  0
  1 10  2  0     0  0
  2 11  2  0     0  0
  3 12  2  0     0  0
  4  5  1  0     0  0
  4  7  1  0     0  0
  5  8  2  0     0  0
  6 10  1  0     0  0
  6 11  1  0     0  0
  6 13  1  0     0  0
  7  9  2  0     0  0
  7 10  1  0     0  0
  8  9  1  0     0  0
  8 12  1  0     0  0
  9 11  1  0     0  0
 12 14  1  0     0  0
 13 15  1  0     0  0
 13 16  1  0     0  0
 14 17  1  0     0  0
 15 18  1  0     0  0
 16 19  1  0     0  0
 17 20  1  0     0  0
 18 21  1  0     0  0
 19 21  1  0     0  0
 20 22  1  0     0  0
 22 23  1  0     0  0
 23 24  1  0     0  0
 24 25  1  0     0  0
 25 26  1  0     0  0
 26 27  1  0     0  0
 27 28  1  0     0  0
 28 29  1  0     0  0
 29 30  1  0     0  0
 30 31  1  0     0  0
 31 32  1  0     0  0
 32 33  1  0     0  0
 33 34  1  0     0  0
 34 35  1  0     0  0
M  END
> <standard_type>
IC50

> <# Confs.>
25

> <canonical_smiles>
O=C1C2=C(C(C(CCCCCCCCCCCCCCCCC)=O)=NN2)C(N1C3CCCCC3)=O

> <standard_relation>
=

> <predicted_activity_value>
5.795880017344075

> <actual_activity_value>
5.534617148551582

> <Compound>
11

> <publication_ID>
nan

> <standard_units>
nM

> hash
4736667858980123097

$$$$
11_
XXILIB    08252103493D 0   0.00000     0.00000

 35 37  0     1  0            999 V2000
   -6.8554    6.6137    5.5895 O   0  0  0  0  0  2           0  0  0
   -3.1785    4.0449    6.9305 O   0  0  0  0  0  2           0  0  0
   -3.3511    1.2205    5.6543 O   0  0  0  0  0  2           0  0  0
   -6.8707    3.6467    4.3428 N   0  0  0  0  0  3           0  0  0
   -6.3525    2.4051    4.1676 N   0  0  0  0  0  3           0  0  0
   -4.8791    5.6533    6.4924 N   0  0  1  0  0  3           0  0  0
   -6.1091    4.3990    5.1585 C   0  0  0  0  0  4           0  0  0
   -5.2221    2.3971    4.9087 C   0  0  0  0  0  4           0  0  0
   -5.0489    3.6345    5.5368 C   0  0  0  0  0  4           0  0  0
   -6.0595    5.7002    5.7340 C   0  0  0  0  0  4           0  0  0
   -4.2167    4.4149    6.4078 C   0  0  0  0  0  4           0  0  0
   -4.3780    1.2252    4.9799 C   0  0  0  0  0  4           0  0  0
   -4.3923    6.7795    7.2826 C   0  0  2  0  0  4           0  0  0
   -4.8257   -0.0000    4.2197 C   0  0  0  0  0  4           0  0  0
   -5.4110    7.1952    8.3549 C   0  0  0  0  0  4           0  0  0
   -4.0102    7.9731    6.3950 C   0  0  0  0  0  4           0  0  0
   -4.2342    0.0000    2.8129 C   0  0  0  0  0  4           0  0  0
   -4.9053    8.3759    9.1809 C   0  0  0  0  0  4           0  0  0
   -3.5045    9.1496    7.2268 C   0  0  0  0  0  4           0  0  0
   -2.7085   -0.0000    2.8129 C   0  0  0  0  0  4           0  0  0
   -4.5137    9.5565    8.2967 C   0  0  0  0  0  4           0  0  0
   -2.1171    0.0000    1.4065 C   0  0  0  0  0  4           0  0  0
   -0.5914    0.0000    1.4065 C   0  0  0  0  0  4           0  0  0
    0.0000    0.0000    0.0000 C   0  0  0  0  0  4           0  0  0
    1.5260   -0.0000    0.0000 C   0  0  0  0  0  4           0  0  0
    2.1174    0.0000   -1.4065 C   0  0  0  0  0  4           0  0  0
    3.6431    0.0000   -1.4065 C   0  0  0  0  0  4           0  0  0
    4.2345    0.0000   -2.8129 C   0  0  0  0  0  4           0  0  0
    5.7602    0.0000   -2.8129 C   0  0  0  0  0  4           0  0  0
    6.3516    0.0000   -4.2194 C   0  0  0  0  0  4           0  0  0
    7.8773    0.0000   -4.2194 C   0  0  0  0  0  4           0  0  0
    8.4687    0.0000   -5.6259 C   0  0  0  0  0  4           0  0  0
    9.9944    0.0000   -5.6259 C   0  0  0  0  0  4           0  0  0
   10.5858    0.0000   -7.0324 C   0  0  0  0  0  4           0  0  0
   12.1071    0.0000   -7.0320 C   0  0  0  0  0  4           0  0  0
  1 10  2  0     0  0
  2 11  2  0     0  0
  3 12  2  0     0  0
  4  5  1  0     0  0
  4  7  1  0     0  0
  5  8  2  0     0  0
  6 10  1  0     0  0
  6 11  1  0     0  0
  6 13  1  0     0  0
  7  9  2  0     0  0
  7 10  1  0     0  0
  8  9  1  0     0  0
  8 12  1  0     0  0
  9 11  1  0     0  0
 12 14  1  0     0  0
 13 15  1  0     0  0
 13 16  1  0     0  0
 14 17  1  0     0  0
 15 18  1  0     0  0
 16 19  1  0     0  0
 17 20  1  0     0  0
 18 21  1  0     0  0
 19 21  1  0     0  0
 20 22  1  0     0  0
 22 23  1  0     0  0
 23 24  1  0     0  0
 24 25  1  0     0  0
 25 26  1  0     0  0
 26 27  1  0     0  0
 27 28  1  0     0  0
 28 29  1  0     0  0
 29 30  1  0     0  0
 30 31  1  0     0  0
 31 32  1  0     0  0
 32 33  1  0     0  0
 33 34  1  0     0  0
 34 35  1  0     0  0
M  END
> <standard_type>
IC50

> <# Confs.>
25

> <canonical_smiles>
O=C1C2=C(C(C(CCCCCCCCCCCCCCCCC)=O)=NN2)C(N1C3CCCCC3)=O

> <standard_relation>
=

> <predicted_activity_value>
5.795880017344075

> <actual_activity_value>
5.534617148551582

> <Compound>
11

> <publication_ID>
nan

> <standard_units>
nM

> hash
4736667858980123097

$$$$
11_
XXILIB    08252103493D 0   0.00000     0.00000

 35 37  0     1  0            999 V2000
  -10.4600   -4.9662    0.1235 O   0  0  0  0  0  2           0  0  0
   -9.9488   -0.8954    2.3783 O   0  0  0  0  0  2           0  0  0
   -6.9306   -0.2343    2.6777 O   0  0  0  0  0  2           0  0  0
   -7.3792   -4.1202    0.5114 N   0  0  0  0  0  3           0  0  0
   -6.3977   -3.2918    0.9486 N   0  0  0  0  0  3           0  0  0
  -10.6238   -2.9006    1.2854 N   0  0  1  0  0  3           0  0  0
   -8.6044   -3.6494    0.8093 C   0  0  0  0  0  4           0  0  0
   -7.0514   -2.2671    1.5402 C   0  0  0  0  0  4           0  0  0
   -8.4331   -2.4689    1.4640 C   0  0  0  0  0  4           0  0  0
   -9.9808   -3.9816    0.6621 C   0  0  0  0  0  4           0  0  0
   -9.7272   -1.9422    1.7925 C   0  0  0  0  0  4           0  0  0
   -6.3342   -1.1644    2.1407 C   0  0  0  0  0  4           0  0  0
  -12.0750   -2.7867    1.3896 C   0  0  2  0  0  4           0  0  0
   -4.8257   -1.2183    2.1096 C   0  0  0  0  0  4           0  0  0
  -12.5899   -1.5165    0.6955 C   0  0  0  0  0  4           0  0  0
  -12.5458   -2.8444    2.8503 C   0  0  0  0  0  4           0  0  0
   -4.2342    0.0000    2.8129 C   0  0  0  0  0  4           0  0  0
  -14.1080   -1.3932    0.8062 C   0  0  0  0  0  4           0  0  0
  -14.0644   -2.7217    2.9539 C   0  0  0  0  0  4           0  0  0
   -2.7085    0.0000    2.8129 C   0  0  0  0  0  4           0  0  0
  -14.5755   -1.4639    2.2573 C   0  0  0  0  0  4           0  0  0
   -2.1171    0.0000    1.4065 C   0  0  0  0  0  4           0  0  0
   -0.5914   -0.0000    1.4065 C   0  0  0  0  0  4           0  0  0
    0.0000    0.0000    0.0000 C   0  0  0  0  0  4           0  0  0
    1.5260   -0.0000    0.0000 C   0  0  0  0  0  4           0  0  0
    2.1174    0.0000   -1.4065 C   0  0  0  0  0  4           0  0  0
    3.6431    0.0000   -1.4065 C   0  0  0  0  0  4           0  0  0
    4.2345    0.0000   -2.8129 C   0  0  0  0  0  4           0  0  0
    5.7602    0.0000   -2.8129 C   0  0  0  0  0  4           0  0  0
    6.3516    0.0000   -4.2194 C   0  0  0  0  0  4           0  0  0
    7.8773    0.0000   -4.2194 C   0  0  0  0  0  4           0  0  0
    8.4687    0.0000   -5.6259 C   0  0  0  0  0  4           0  0  0
    9.9944    0.0000   -5.6259 C   0  0  0  0  0  4           0  0  0
   10.5858    0.0000   -7.0324 C   0  0  0  0  0  4           0  0  0
   12.1071    0.0000   -7.0320 C   0  0  0  0  0  4           0  0  0
  1 10  2  0     0  0
  2 11  2  0     0  0
  3 12  2  0     0  0
  4  5  1  0     0  0
  4  7  1  0     0  0
  5  8  2  0     0  0
  6 10  1  0     0  0
  6 11  1  0     0  0
  6 13  1  0     0  0
  7  9  2  0     0  0
  7 10  1  0     0  0
  8  9  1  0     0  0
  8 12  1  0     0  0
  9 11  1  0     0  0
 12 14  1  0     0  0
 13 15  1  0     0  0
 13 16  1  0     0  0
 14 17  1  0     0  0
 15 18  1  0     0  0
 16 19  1  0     0  0
 17 20  1  0     0  0
 18 21  1  0     0  0
 19 21  1  0     0  0
 20 22  1  0     0  0
 22 23  1  0     0  0
 23 24  1  0     0  0
 24 25  1  0     0  0
 25 26  1  0     0  0
 26 27  1  0     0  0
 27 28  1  0     0  0
 28 29  1  0     0  0
 29 30  1  0     0  0
 30 31  1  0     0  0
 31 32  1  0     0  0
 32 33  1  0     0  0
 33 34  1  0     0  0
 34 35  1  0     0  0
M  END
> <standard_type>
IC50

> <# Confs.>
25

> <canonical_smiles>
O=C1C2=C(C(C(CCCCCCCCCCCCCCCCC)=O)=NN2)C(N1C3CCCCC3)=O

> <standard_relation>
=

> <predicted_activity_value>
5.795880017344075

> <actual_activity_value>
5.534617148551582

> <Compound>
11

> <publication_ID>
nan

> <standard_units>
nM

> hash
4736667858980123097

$$$$
11_
XXILIB    08252103493D 0   0.00000     0.00000

 35 37  0     1  0            999 V2000
  -10.4600    4.8122   -0.1432 O   0  0  0  0  0  2           0  0  0
   -9.9488    0.8241    2.2549 O   0  0  0  0  0  2           0  0  0
   -6.9306    0.2343    2.6777 O   0  0  0  0  0  2           0  0  0
   -7.3792    4.0533    0.3955 N   0  0  0  0  0  3           0  0  0
   -6.3977    3.2604    0.8943 N   0  0  0  0  0  3           0  0  0
  -10.6238    2.7732    1.0647 N   0  0  1  0  0  3           0  0  0
   -8.6044    3.5599    0.6543 C   0  0  0  0  0  4           0  0  0
   -7.0514    2.2358    1.4860 C   0  0  0  0  0  4           0  0  0
   -8.4331    2.4027    1.3493 C   0  0  0  0  0  4           0  0  0
   -9.9808    3.8535    0.4402 C   0  0  0  0  0  4           0  0  0
   -9.7272    1.8548    1.6412 C   0  0  0  0  0  4           0  0  0
   -6.3342    1.1644    2.1407 C   0  0  0  0  0  4           0  0  0
  -12.0750    2.6260    1.1113 C   0  0  2  0  0  4           0  0  0
   -4.8257    1.2183    2.1096 C   0  0  0  0  0  4           0  0  0
  -12.6770    2.5466   -0.3000 C   0  0  0  0  0  4           0  0  0
  -12.7337    3.7475    1.9278 C   0  0  0  0  0  4           0  0  0
   -4.2342   -0.0000    2.8129 C   0  0  0  0  0  4           0  0  0
  -14.1960    2.3961   -0.2540 C   0  0  0  0  0  4           0  0  0
  -14.2521    3.5906    1.9708 C   0  0  0  0  0  4           0  0  0
   -2.7085   -0.0000    2.8129 C   0  0  0  0  0  4           0  0  0
  -14.8480    3.5039    0.5686 C   0  0  0  0  0  4           0  0  0
   -2.1171   -0.0000    1.4065 C   0  0  0  0  0  4           0  0  0
   -0.5914   -0.0000    1.4065 C   0  0  0  0  0  4           0  0  0
    0.0000    0.0000    0.0000 C   0  0  0  0  0  4           0  0  0
    1.5260   -0.0000    0.0000 C   0  0  0  0  0  4           0  0  0
    2.1174    0.0000   -1.4065 C   0  0  0  0  0  4           0  0  0
    3.6431    0.0000   -1.4065 C   0  0  0  0  0  4           0  0  0
    4.2345    0.0000   -2.8129 C   0  0  0  0  0  4           0  0  0
    5.7602    0.0000   -2.8129 C   0  0  0  0  0  4           0  0  0
    6.3516    0.0000   -4.2194 C   0  0  0  0  0  4           0  0  0
    7.8773    0.0000   -4.2194 C   0  0  0  0  0  4           0  0  0
    8.4687    0.0000   -5.6259 C   0  0  0  0  0  4           0  0  0
    9.9944    0.0000   -5.6259 C   0  0  0  0  0  4           0  0  0
   10.5858    0.0000   -7.0324 C   0  0  0  0  0  4           0  0  0
   12.1071    0.0000   -7.0320 C   0  0  0  0  0  4           0  0  0
  1 10  2  0     0  0
  2 11  2  0     0  0
  3 12  2  0     0  0
  4  5  1  0     0  0
  4  7  1  0     0  0
  5  8  2  0     0  0
  6 10  1  0     0  0
  6 11  1  0     0  0
  6 13  1  0     0  0
  7  9  2  0     0  0
  7 10  1  0     0  0
  8  9  1  0     0  0
  8 12  1  0     0  0
  9 11  1  0     0  0
 12 14  1  0     0  0
 13 15  1  0     0  0
 13 16  1  0     0  0
 14 17  1  0     0  0
 15 18  1  0     0  0
 16 19  1  0     0  0
 17 20  1  0     0  0
 18 21  1  0     0  0
 19 21  1  0     0  0
 20 22  1  0     0  0
 22 23  1  0     0  0
 23 24  1  0     0  0
 24 25  1  0     0  0
 25 26  1  0     0  0
 26 27  1  0     0  0
 27 28  1  0     0  0
 28 29  1  0     0  0
 29 30  1  0     0  0
 30 31  1  0     0  0
 31 32  1  0     0  0
 32 33  1  0     0  0
 33 34  1  0     0  0
 34 35  1  0     0  0
M  END
> <standard_type>
IC50

> <# Confs.>
25

> <canonical_smiles>
O=C1C2=C(C(C(CCCCCCCCCCCCCCCCC)=O)=NN2)C(N1C3CCCCC3)=O

> <standard_relation>
=

> <predicted_activity_value>
5.795880017344075

> <actual_activity_value>
5.534617148551582

> <Compound>
11

> <publication_ID>
nan

> <standard_units>
nM

> hash
4736667858980123097

$$$$
11_
XXILIB    08252103493D 0   0.00000     0.00000

 35 37  0     1  0            999 V2000
   -3.5997   -2.1828   10.8128 O   0  0  0  0  0  2           0  0  0
   -3.3596   -4.2914    6.6400 O   0  0  0  0  0  2           0  0  0
   -4.1307   -2.2815    4.4035 O   0  0  0  0  0  2           0  0  0
   -4.3604   -0.2304    8.3702 N   0  0  0  0  0  3           0  0  0
   -4.5524    0.0447    7.0555 N   0  0  0  0  0  3           0  0  0
   -3.3675   -3.5962    8.9176 N   0  0  1  0  0  3           0  0  0
   -3.9845   -1.5076    8.5670 C   0  0  0  0  0  4           0  0  0
   -4.2810   -1.1163    6.4186 C   0  0  0  0  0  4           0  0  0
   -3.9223   -2.1013    7.3442 C   0  0  0  0  0  4           0  0  0
   -3.6408   -2.4085    9.6143 C   0  0  0  0  0  4           0  0  0
   -3.5204   -3.4673    7.5248 C   0  0  0  0  0  4           0  0  0
   -4.3780   -1.2252    4.9799 C   0  0  0  0  0  4           0  0  0
   -2.9625   -4.8336    9.5765 C   0  0  2  0  0  4           0  0  0
   -4.8257    0.0000    4.2197 C   0  0  0  0  0  4           0  0  0
   -4.0313   -5.3175   10.5685 C   0  0  0  0  0  4           0  0  0
   -1.5977   -4.6897   10.2656 C   0  0  0  0  0  4           0  0  0
   -4.2342    0.0000    2.8129 C   0  0  0  0  0  4           0  0  0
   -3.6082   -6.6106   11.2620 C   0  0  0  0  0  4           0  0  0
   -1.1800   -5.9862   10.9561 C   0  0  0  0  0  4           0  0  0
   -2.7085    0.0000    2.8129 C   0  0  0  0  0  4           0  0  0
   -2.2458   -6.4701   11.9352 C   0  0  0  0  0  4           0  0  0
   -2.1171    0.0000    1.4065 C   0  0  0  0  0  4           0  0  0
   -0.5914   -0.0000    1.4065 C   0  0  0  0  0  4           0  0  0
    0.0000    0.0000    0.0000 C   0  0  0  0  0  4           0  0  0
    1.5260   -0.0000    0.0000 C   0  0  0  0  0  4           0  0  0
    2.1174    0.0000   -1.4065 C   0  0  0  0  0  4           0  0  0
    3.6431    0.0000   -1.4065 C   0  0  0  0  0  4           0  0  0
    4.2345    0.0000   -2.8129 C   0  0  0  0  0  4           0  0  0
    5.7602    0.0000   -2.8129 C   0  0  0  0  0  4           0  0  0
    6.3516    0.0000   -4.2194 C   0  0  0  0  0  4           0  0  0
    7.8773    0.0000   -4.2194 C   0  0  0  0  0  4           0  0  0
    8.4687    0.0000   -5.6259 C   0  0  0  0  0  4           0  0  0
    9.9944    0.0000   -5.6259 C   0  0  0  0  0  4           0  0  0
   10.5858    0.0000   -7.0324 C   0  0  0  0  0  4           0  0  0
   12.1071    0.0000   -7.0320 C   0  0  0  0  0  4           0  0  0
  1 10  2  0     0  0
  2 11  2  0     0  0
  3 12  2  0     0  0
  4  5  1  0     0  0
  4  7  1  0     0  0
  5  8  2  0     0  0
  6 10  1  0     0  0
  6 11  1  0     0  0
  6 13  1  0     0  0
  7  9  2  0     0  0
  7 10  1  0     0  0
  8  9  1  0     0  0
  8 12  1  0     0  0
  9 11  1  0     0  0
 12 14  1  0     0  0
 13 15  1  0     0  0
 13 16  1  0     0  0
 14 17  1  0     0  0
 15 18  1  0     0  0
 16 19  1  0     0  0
 17 20  1  0     0  0
 18 21  1  0     0  0
 19 21  1  0     0  0
 20 22  1  0     0  0
 22 23  1  0     0  0
 23 24  1  0     0  0
 24 25  1  0     0  0
 25 26  1  0     0  0
 26 27  1  0     0  0
 27 28  1  0     0  0
 28 29  1  0     0  0
 29 30  1  0     0  0
 30 31  1  0     0  0
 31 32  1  0     0  0
 32 33  1  0     0  0
 33 34  1  0     0  0
 34 35  1  0     0  0
M  END
> <standard_type>
IC50

> <# Confs.>
25

> <canonical_smiles>
O=C1C2=C(C(C(CCCCCCCCCCCCCCCCC)=O)=NN2)C(N1C3CCCCC3)=O

> <standard_relation>
=

> <predicted_activity_value>
5.795880017344075

> <actual_activity_value>
5.534617148551582

> <Compound>
11

> <publication_ID>
nan

> <standard_units>
nM

> hash
4736667858980123097

$$$$
11_
XXILIB    08252103493D 0   0.00000     0.00000

 35 37  0     1  0            999 V2000
   -6.6940   -6.7069    5.3443 O   0  0  0  0  0  2           0  0  0
   -3.1038   -4.0880    6.8171 O   0  0  0  0  0  2           0  0  0
   -3.3511   -1.2205    5.6543 O   0  0  0  0  0  2           0  0  0
   -6.8005   -3.6872    4.2362 N   0  0  0  0  0  3           0  0  0
   -6.3197   -2.4241    4.1176 N   0  0  0  0  0  3           0  0  0
   -4.7455   -5.7304    6.2896 N   0  0  1  0  0  3           0  0  0
   -6.0152   -4.4532    5.0159 C   0  0  0  0  0  4           0  0  0
   -5.1893   -2.4160    4.8589 C   0  0  0  0  0  4           0  0  0
   -4.9795   -3.6746    5.4314 C   0  0  0  0  0  4           0  0  0
   -5.9251   -5.7777    5.5300 C   0  0  0  0  0  4           0  0  0
   -4.1251   -4.4678    6.2686 C   0  0  0  0  0  4           0  0  0
   -4.3780   -1.2252    4.9799 C   0  0  0  0  0  4           0  0  0
   -4.2239   -6.8767    7.0267 C   0  0  2  0  0  4           0  0  0
   -4.8257    0.0000    4.2197 C   0  0  0  0  0  4           0  0  0
   -4.1264   -6.5799    8.5310 C   0  0  0  0  0  4           0  0  0
   -2.8707   -7.3423    6.4694 C   0  0  0  0  0  4           0  0  0
   -4.2342    0.0000    2.8129 C   0  0  0  0  0  4           0  0  0
   -3.5774   -7.7769    9.3043 C   0  0  0  0  0  4           0  0  0
   -2.3278   -8.5398    7.2461 C   0  0  0  0  0  4           0  0  0
   -2.7085    0.0000    2.8129 C   0  0  0  0  0  4           0  0  0
   -2.2390   -8.2467    8.7410 C   0  0  0  0  0  4           0  0  0
   -2.1171    0.0000    1.4065 C   0  0  0  0  0  4           0  0  0
   -0.5914   -0.0000    1.4065 C   0  0  0  0  0  4           0  0  0
    0.0000    0.0000    0.0000 C   0  0  0  0  0  4           0  0  0
    1.5260   -0.0000    0.0000 C   0  0  0  0  0  4           0  0  0
    2.1174    0.0000   -1.4065 C   0  0  0  0  0  4           0  0  0
    3.6431    0.0000   -1.4065 C   0  0  0  0  0  4           0  0  0
    4.2345    0.0000   -2.8129 C   0  0  0  0  0  4           0  0  0
    5.7602    0.0000   -2.8129 C   0  0  0  0  0  4           0  0  0
    6.3516    0.0000   -4.2194 C   0  0  0  0  0  4           0  0  0
    7.8773    0.0000   -4.2194 C   0  0  0  0  0  4           0  0  0
    8.4687    0.0000   -5.6259 C   0  0  0  0  0  4           0  0  0
    9.9944    0.0000   -5.6259 C   0  0  0  0  0  4           0  0  0
   10.5858    0.0000   -7.0324 C   0  0  0  0  0  4           0  0  0
   12.1071    0.0000   -7.0320 C   0  0  0  0  0  4           0  0  0
  1 10  2  0     0  0
  2 11  2  0     0  0
  3 12  2  0     0  0
  4  5  1  0     0  0
  4  7  1  0     0  0
  5  8  2  0     0  0
  6 10  1  0     0  0
  6 11  1  0     0  0
  6 13  1  0     0  0
  7  9  2  0     0  0
  7 10  1  0     0  0
  8  9  1  0     0  0
  8 12  1  0     0  0
  9 11  1  0     0  0
 12 14  1  0     0  0
 13 15  1  0     0  0
 13 16  1  0     0  0
 14 17  1  0     0  0
 15 18  1  0     0  0
 16 19  1  0     0  0
 17 20  1  0     0  0
 18 21  1  0     0  0
 19 21  1  0     0  0
 20 22  1  0     0  0
 22 23  1  0     0  0
 23 24  1  0     0  0
 24 25  1  0     0  0
 25 26  1  0     0  0
 26 27  1  0     0  0
 27 28  1  0     0  0
 28 29  1  0     0  0
 29 30  1  0     0  0
 30 31  1  0     0  0
 31 32  1  0     0  0
 32 33  1  0     0  0
 33 34  1  0     0  0
 34 35  1  0     0  0
M  END
> <standard_type>
IC50

> <# Confs.>
25

> <canonical_smiles>
O=C1C2=C(C(C(CCCCCCCCCCCCCCCCC)=O)=NN2)C(N1C3CCCCC3)=O

> <standard_relation>
=

> <predicted_activity_value>
5.795880017344075

> <actual_activity_value>
5.534617148551582

> <Compound>
11

> <publication_ID>
nan

> <standard_units>
nM

> hash
4736667858980123097

$$$$
11_
XXILIB    08252103493D 0   0.00000     0.00000

 35 37  0     1  0            999 V2000
  -10.4600   -4.9662    0.1235 O   0  0  0  0  0  2           0  0  0
   -9.9488   -0.8954    2.3783 O   0  0  0  0  0  2           0  0  0
   -6.9306   -0.2343    2.6777 O   0  0  0  0  0  2           0  0  0
   -7.3792   -4.1202    0.5114 N   0  0  0  0  0  3           0  0  0
   -6.3977   -3.2918    0.9486 N   0  0  0  0  0  3           0  0  0
  -10.6238   -2.9006    1.2854 N   0  0  1  0  0  3           0  0  0
   -8.6044   -3.6494    0.8093 C   0  0  0  0  0  4           0  0  0
   -7.0514   -2.2671    1.5402 C   0  0  0  0  0  4           0  0  0
   -8.4331   -2.4689    1.4640 C   0  0  0  0  0  4           0  0  0
   -9.9808   -3.9816    0.6621 C   0  0  0  0  0  4           0  0  0
   -9.7272   -1.9422    1.7925 C   0  0  0  0  0  4           0  0  0
   -6.3342   -1.1644    2.1407 C   0  0  0  0  0  4           0  0  0
  -12.0750   -2.7867    1.3896 C   0  0  2  0  0  4           0  0  0
   -4.8257   -1.2183    2.1096 C   0  0  0  0  0  4           0  0  0
  -12.6770   -3.9692    2.1640 C   0  0  0  0  0  4           0  0  0
  -12.7337   -2.6403    0.0101 C   0  0  0  0  0  4           0  0  0
   -4.2342    0.0000    2.8129 C   0  0  0  0  0  4           0  0  0
  -14.1960   -3.8541    2.2713 C   0  0  0  0  0  4           0  0  0
  -14.2521   -2.5246    0.1245 C   0  0  0  0  0  4           0  0  0
   -2.7085    0.0000    2.8129 C   0  0  0  0  0  4           0  0  0
  -14.8480   -3.6956    0.9007 C   0  0  0  0  0  4           0  0  0
   -2.1171    0.0000    1.4065 C   0  0  0  0  0  4           0  0  0
   -0.5914   -0.0000    1.4065 C   0  0  0  0  0  4           0  0  0
    0.0000    0.0000    0.0000 C   0  0  0  0  0  4           0  0  0
    1.5260   -0.0000    0.0000 C   0  0  0  0  0  4           0  0  0
    2.1174    0.0000   -1.4065 C   0  0  0  0  0  4           0  0  0
    3.6431    0.0000   -1.4065 C   0  0  0  0  0  4           0  0  0
    4.2345    0.0000   -2.8129 C   0  0  0  0  0  4           0  0  0
    5.7602    0.0000   -2.8129 C   0  0  0  0  0  4           0  0  0
    6.3516    0.0000   -4.2194 C   0  0  0  0  0  4           0  0  0
    7.8773    0.0000   -4.2194 C   0  0  0  0  0  4           0  0  0
    8.4687    0.0000   -5.6259 C   0  0  0  0  0  4           0  0  0
    9.9944    0.0000   -5.6259 C   0  0  0  0  0  4           0  0  0
   10.5858    0.0000   -7.0324 C   0  0  0  0  0  4           0  0  0
   12.1071    0.0000   -7.0320 C   0  0  0  0  0  4           0  0  0
  1 10  2  0     0  0
  2 11  2  0     0  0
  3 12  2  0     0  0
  4  5  1  0     0  0
  4  7  1  0     0  0
  5  8  2  0     0  0
  6 10  1  0     0  0
  6 11  1  0     0  0
  6 13  1  0     0  0
  7  9  2  0     0  0
  7 10  1  0     0  0
  8  9  1  0     0  0
  8 12  1  0     0  0
  9 11  1  0     0  0
 12 14  1  0     0  0
 13 15  1  0     0  0
 13 16  1  0     0  0
 14 17  1  0     0  0
 15 18  1  0     0  0
 16 19  1  0     0  0
 17 20  1  0     0  0
 18 21  1  0     0  0
 19 21  1  0     0  0
 20 22  1  0     0  0
 22 23  1  0     0  0
 23 24  1  0     0  0
 24 25  1  0     0  0
 25 26  1  0     0  0
 26 27  1  0     0  0
 27 28  1  0     0  0
 28 29  1  0     0  0
 29 30  1  0     0  0
 30 31  1  0     0  0
 31 32  1  0     0  0
 32 33  1  0     0  0
 33 34  1  0     0  0
 34 35  1  0     0  0
M  END
> <standard_type>
IC50

> <# Confs.>
25

> <canonical_smiles>
O=C1C2=C(C(C(CCCCCCCCCCCCCCCCC)=O)=NN2)C(N1C3CCCCC3)=O

> <standard_relation>
=

> <predicted_activity_value>
5.795880017344075

> <actual_activity_value>
5.534617148551582

> <Compound>
11

> <publication_ID>
nan

> <standard_units>
nM

> hash
4736667858980123097

$$$$
11_
XXILIB    08252103493D 0   0.00000     0.00000

 35 37  0     1  0            999 V2000
   -3.4821    4.2163   11.3924 O   0  0  0  0  0  2           0  0  0
   -1.1950    5.4113    7.4863 O   0  0  0  0  0  2           0  0  0
   -1.6938    3.2799    5.2853 O   0  0  0  0  0  2           0  0  0
   -3.9012    2.1114    8.9943 N   0  0  0  0  0  3           0  0  0
   -3.6976    1.6598    7.7312 N   0  0  0  0  0  3           0  0  0
   -2.1883    5.1558    9.6355 N   0  0  1  0  0  3           0  0  0
   -3.2483    3.2650    9.2272 C   0  0  0  0  0  4           0  0  0
   -2.8840    2.5788    7.1649 C   0  0  0  0  0  4           0  0  0
   -2.5906    3.5930    8.0820 C   0  0  0  0  0  4           0  0  0
   -3.0331    4.2233   10.2578 C   0  0  0  0  0  4           0  0  0
   -1.8858    4.8238    8.3021 C   0  0  0  0  0  4           0  0  0
   -2.4332    2.4432    5.7976 C   0  0  0  0  0  4           0  0  0
   -1.6823    6.3483   10.3076 C   0  0  2  0  0  4           0  0  0
   -2.8809    1.2180    5.0374 C   0  0  0  0  0  4           0  0  0
   -2.1243    7.6302    9.5853 C   0  0  0  0  0  4           0  0  0
   -0.1555    6.3056   10.4672 C   0  0  0  0  0  4           0  0  0
   -2.2894    1.2180    3.6307 C   0  0  0  0  0  4           0  0  0
   -1.5931    8.8794   10.2849 C   0  0  0  0  0  4           0  0  0
    0.3690    7.5567   11.1681 C   0  0  0  0  0  4           0  0  0
   -2.7085    0.0000    2.8129 C   0  0  0  0  0  4           0  0  0
   -0.0773    8.8296   10.4544 C   0  0  0  0  0  4           0  0  0
   -2.1171   -0.0000    1.4065 C   0  0  0  0  0  4           0  0  0
   -0.5914    0.0000    1.4065 C   0  0  0  0  0  4           0  0  0
    0.0000    0.0000    0.0000 C   0  0  0  0  0  4           0  0  0
    1.5260   -0.0000    0.0000 C   0  0  0  0  0  4           0  0  0
    2.1174    0.0000   -1.4065 C   0  0  0  0  0  4           0  0  0
    3.6431    0.0000   -1.4065 C   0  0  0  0  0  4           0  0  0
    4.2345    0.0000   -2.8129 C   0  0  0  0  0  4           0  0  0
    5.7602    0.0000   -2.8129 C   0  0  0  0  0  4           0  0  0
    6.3516    0.0000   -4.2194 C   0  0  0  0  0  4           0  0  0
    7.8773    0.0000   -4.2194 C   0  0  0  0  0  4           0  0  0
    8.4687    0.0000   -5.6259 C   0  0  0  0  0  4           0  0  0
    9.9944    0.0000   -5.6259 C   0  0  0  0  0  4           0  0  0
   10.5858    0.0000   -7.0324 C   0  0  0  0  0  4           0  0  0
   12.1071    0.0000   -7.0320 C   0  0  0  0  0  4           0  0  0
  1 10  2  0     0  0
  2 11  2  0     0  0
  3 12  2  0     0  0
  4  5  1  0     0  0
  4  7  1  0     0  0
  5  8  2  0     0  0
  6 10  1  0     0  0
  6 11  1  0     0  0
  6 13  1  0     0  0
  7  9  2  0     0  0
  7 10  1  0     0  0
  8  9  1  0     0  0
  8 12  1  0     0  0
  9 11  1  0     0  0
 12 14  1  0     0  0
 13 15  1  0     0  0
 13 16  1  0     0  0
 14 17  1  0     0  0
 15 18  1  0     0  0
 16 19  1  0     0  0
 17 20  1  0     0  0
 18 21  1  0     0  0
 19 21  1  0     0  0
 20 22  1  0     0  0
 22 23  1  0     0  0
 23 24  1  0     0  0
 24 25  1  0     0  0
 25 26  1  0     0  0
 26 27  1  0     0  0
 27 28  1  0     0  0
 28 29  1  0     0  0
 29 30  1  0     0  0
 30 31  1  0     0  0
 31 32  1  0     0  0
 32 33  1  0     0  0
 33 34  1  0     0  0
 34 35  1  0     0  0
M  END
> <standard_type>
IC50

> <# Confs.>
25

> <canonical_smiles>
O=C1C2=C(C(C(CCCCCCCCCCCCCCCCC)=O)=NN2)C(N1C3CCCCC3)=O

> <standard_relation>
=

> <predicted_activity_value>
5.795880017344075

> <actual_activity_value>
5.534617148551582

> <Compound>
11

> <publication_ID>
nan

> <standard_units>
nM

> hash
4736667858980123097

$$$$
11_
XXILIB    08252103493D 0   0.00000     0.00000

 35 37  0     1  0            999 V2000
   -1.4217   -1.8146   10.1237 O   0  0  0  0  0  2           0  0  0
   -3.4504   -4.2851    6.7036 O   0  0  0  0  0  2           0  0  0
   -4.6383   -2.3573    4.5802 O   0  0  0  0  0  2           0  0  0
   -2.7008    0.0362    7.8224 N   0  0  0  0  0  3           0  0  0
   -3.3687    0.2302    6.6575 N   0  0  0  0  0  3           0  0  0
   -2.3351   -3.4064    8.6153 N   0  0  1  0  0  3           0  0  0
   -2.5674   -1.2710    8.1138 C   0  0  0  0  0  4           0  0  0
   -3.6564   -1.0143    6.2152 C   0  0  0  0  0  4           0  0  0
   -3.1637   -1.9695    7.1098 C   0  0  0  0  0  4           0  0  0
   -2.0176   -2.1304    9.1068 C   0  0  0  0  0  4           0  0  0
   -3.0340   -3.3703    7.3947 C   0  0  0  0  0  4           0  0  0
   -4.3780   -1.2252    4.9799 C   0  0  0  0  0  4           0  0  0
   -1.9707   -4.6407    9.3034 C   0  0  2  0  0  4           0  0  0
   -4.8257    0.0000    4.2197 C   0  0  0  0  0  4           0  0  0
   -1.0681   -5.5253    8.4297 C   0  0  0  0  0  4           0  0  0
   -3.2101   -5.4155    9.7744 C   0  0  0  0  0  4           0  0  0
   -4.2342    0.0000    2.8129 C   0  0  0  0  0  4           0  0  0
   -0.6883   -6.8192    9.1463 C   0  0  0  0  0  4           0  0  0
   -2.8235   -6.7074   10.4909 C   0  0  0  0  0  4           0  0  0
   -2.7085    0.0000    2.8129 C   0  0  0  0  0  4           0  0  0
   -1.9205   -7.5816    9.6253 C   0  0  0  0  0  4           0  0  0
   -2.1171    0.0000    1.4065 C   0  0  0  0  0  4           0  0  0
   -0.5914   -0.0000    1.4065 C   0  0  0  0  0  4           0  0  0
    0.0000    0.0000    0.0000 C   0  0  0  0  0  4           0  0  0
    1.5260   -0.0000    0.0000 C   0  0  0  0  0  4           0  0  0
    2.1174    0.0000   -1.4065 C   0  0  0  0  0  4           0  0  0
    3.6431    0.0000   -1.4065 C   0  0  0  0  0  4           0  0  0
    4.2345    0.0000   -2.8129 C   0  0  0  0  0  4           0  0  0
    5.7602    0.0000   -2.8129 C   0  0  0  0  0  4           0  0  0
    6.3516    0.0000   -4.2194 C   0  0  0  0  0  4           0  0  0
    7.8773    0.0000   -4.2194 C   0  0  0  0  0  4           0  0  0
    8.4687    0.0000   -5.6259 C   0  0  0  0  0  4           0  0  0
    9.9944    0.0000   -5.6259 C   0  0  0  0  0  4           0  0  0
   10.5858    0.0000   -7.0324 C   0  0  0  0  0  4           0  0  0
   12.1071    0.0000   -7.0320 C   0  0  0  0  0  4           0  0  0
  1 10  2  0     0  0
  2 11  2  0     0  0
  3 12  2  0     0  0
  4  5  1  0     0  0
  4  7  1  0     0  0
  5  8  2  0     0  0
  6 10  1  0     0  0
  6 11  1  0     0  0
  6 13  1  0     0  0
  7  9  2  0     0  0
  7 10  1  0     0  0
  8  9  1  0     0  0
  8 12  1  0     0  0
  9 11  1  0     0  0
 12 14  1  0     0  0
 13 15  1  0     0  0
 13 16  1  0     0  0
 14 17  1  0     0  0
 15 18  1  0     0  0
 16 19  1  0     0  0
 17 20  1  0     0  0
 18 21  1  0     0  0
 19 21  1  0     0  0
 20 22  1  0     0  0
 22 23  1  0     0  0
 23 24  1  0     0  0
 24 25  1  0     0  0
 25 26  1  0     0  0
 26 27  1  0     0  0
 27 28  1  0     0  0
 28 29  1  0     0  0
 29 30  1  0     0  0
 30 31  1  0     0  0
 31 32  1  0     0  0
 32 33  1  0     0  0
 33 34  1  0     0  0
 34 35  1  0     0  0
M  END
> <standard_type>
IC50

> <# Confs.>
25

> <canonical_smiles>
O=C1C2=C(C(C(CCCCCCCCCCCCCCCCC)=O)=NN2)C(N1C3CCCCC3)=O

> <standard_relation>
=

> <predicted_activity_value>
5.795880017344075

> <actual_activity_value>
5.534617148551582

> <Compound>
11

> <publication_ID>
nan

> <standard_units>
nM

> hash
4736667858980123097

$$$$
11_
XXILIB    08252103493D 0   0.00000     0.00000

 35 37  0     1  0            999 V2000
   -6.6940   -6.7069    5.3443 O   0  0  0  0  0  2           0  0  0
   -3.1038   -4.0880    6.8171 O   0  0  0  0  0  2           0  0  0
   -3.3511   -1.2205    5.6543 O   0  0  0  0  0  2           0  0  0
   -6.8005   -3.6872    4.2362 N   0  0  0  0  0  3           0  0  0
   -6.3197   -2.4241    4.1176 N   0  0  0  0  0  3           0  0  0
   -4.7455   -5.7304    6.2896 N   0  0  1  0  0  3           0  0  0
   -6.0152   -4.4532    5.0159 C   0  0  0  0  0  4           0  0  0
   -5.1893   -2.4160    4.8589 C   0  0  0  0  0  4           0  0  0
   -4.9795   -3.6746    5.4314 C   0  0  0  0  0  4           0  0  0
   -5.9251   -5.7777    5.5300 C   0  0  0  0  0  4           0  0  0
   -4.1251   -4.4678    6.2686 C   0  0  0  0  0  4           0  0  0
   -4.3780   -1.2252    4.9799 C   0  0  0  0  0  4           0  0  0
   -4.2239   -6.8767    7.0267 C   0  0  2  0  0  4           0  0  0
   -4.8257    0.0000    4.2197 C   0  0  0  0  0  4           0  0  0
   -3.9197   -8.0558    6.0899 C   0  0  0  0  0  4           0  0  0
   -5.1709   -7.3033    8.1579 C   0  0  0  0  0  4           0  0  0
   -4.2342    0.0000    2.8129 C   0  0  0  0  0  4           0  0  0
   -3.3769   -9.2579    6.8595 C   0  0  0  0  0  4           0  0  0
   -4.6220   -8.5048    8.9240 C   0  0  0  0  0  4           0  0  0
   -2.7085    0.0000    2.8129 C   0  0  0  0  0  4           0  0  0
   -4.3128   -9.6725    7.9915 C   0  0  0  0  0  4           0  0  0
   -2.1171    0.0000    1.4065 C   0  0  0  0  0  4           0  0  0
   -0.5914   -0.0000    1.4065 C   0  0  0  0  0  4           0  0  0
    0.0000    0.0000    0.0000 C   0  0  0  0  0  4           0  0  0
    1.5260   -0.0000    0.0000 C   0  0  0  0  0  4           0  0  0
    2.1174    0.0000   -1.4065 C   0  0  0  0  0  4           0  0  0
    3.6431    0.0000   -1.4065 C   0  0  0  0  0  4           0  0  0
    4.2345    0.0000   -2.8129 C   0  0  0  0  0  4           0  0  0
    5.7602    0.0000   -2.8129 C   0  0  0  0  0  4           0  0  0
    6.3516    0.0000   -4.2194 C   0  0  0  0  0  4           0  0  0
    7.8773    0.0000   -4.2194 C   0  0  0  0  0  4           0  0  0
    8.4687    0.0000   -5.6259 C   0  0  0  0  0  4           0  0  0
    9.9944    0.0000   -5.6259 C   0  0  0  0  0  4           0  0  0
   10.5858    0.0000   -7.0324 C   0  0  0  0  0  4           0  0  0
   12.1071    0.0000   -7.0320 C   0  0  0  0  0  4           0  0  0
  1 10  2  0     0  0
  2 11  2  0     0  0
  3 12  2  0     0  0
  4  5  1  0     0  0
  4  7  1  0     0  0
  5  8  2  0     0  0
  6 10  1  0     0  0
  6 11  1  0     0  0
  6 13  1  0     0  0
  7  9  2  0     0  0
  7 10  1  0     0  0
  8  9  1  0     0  0
  8 12  1  0     0  0
  9 11  1  0     0  0
 12 14  1  0     0  0
 13 15  1  0     0  0
 13 16  1  0     0  0
 14 17  1  0     0  0
 15 18  1  0     0  0
 16 19  1  0     0  0
 17 20  1  0     0  0
 18 21  1  0     0  0
 19 21  1  0     0  0
 20 22  1  0     0  0
 22 23  1  0     0  0
 23 24  1  0     0  0
 24 25  1  0     0  0
 25 26  1  0     0  0
 26 27  1  0     0  0
 27 28  1  0     0  0
 28 29  1  0     0  0
 29 30  1  0     0  0
 30 31  1  0     0  0
 31 32  1  0     0  0
 32 33  1  0     0  0
 33 34  1  0     0  0
 34 35  1  0     0  0
M  END
> <standard_type>
IC50

> <# Confs.>
25

> <canonical_smiles>
O=C1C2=C(C(C(CCCCCCCCCCCCCCCCC)=O)=NN2)C(N1C3CCCCC3)=O

> <standard_relation>
=

> <predicted_activity_value>
5.795880017344075

> <actual_activity_value>
5.534617148551582

> <Compound>
11

> <publication_ID>
nan

> <standard_units>
nM

> hash
4736667858980123097

$$$$
11_
XXILIB    08252103493D 0   0.00000     0.00000

 35 37  0     1  0            999 V2000
   -1.5373    5.4344   12.2101 O   0  0  0  0  0  2           0  0  0
    0.7498    6.6294    8.3040 O   0  0  0  0  0  2           0  0  0
    0.2510    4.4979    6.1030 O   0  0  0  0  0  2           0  0  0
   -1.9564    3.3294    9.8120 N   0  0  0  0  0  3           0  0  0
   -1.7528    2.8778    8.5489 N   0  0  0  0  0  3           0  0  0
   -0.2435    6.3739   10.4532 N   0  0  1  0  0  3           0  0  0
   -1.3035    4.4831   10.0449 C   0  0  0  0  0  4           0  0  0
   -0.9392    3.7969    7.9826 C   0  0  0  0  0  4           0  0  0
   -0.6458    4.8110    8.8997 C   0  0  0  0  0  4           0  0  0
   -1.0883    5.4413   11.0755 C   0  0  0  0  0  4           0  0  0
    0.0590    6.0418    9.1198 C   0  0  0  0  0  4           0  0  0
   -0.4884    3.6612    6.6153 C   0  0  0  0  0  4           0  0  0
    0.2625    7.5663   11.1253 C   0  0  2  0  0  4           0  0  0
   -0.9361    2.4361    5.8551 C   0  0  0  0  0  4           0  0  0
   -0.1795    8.8483   10.4030 C   0  0  0  0  0  4           0  0  0
    1.7893    7.5236   11.2849 C   0  0  0  0  0  4           0  0  0
   -0.3446    2.4361    4.4484 C   0  0  0  0  0  4           0  0  0
    0.3517   10.0975   11.1026 C   0  0  0  0  0  4           0  0  0
    2.3138    8.7748   11.9858 C   0  0  0  0  0  4           0  0  0
   -0.7637    1.2180    3.6307 C   0  0  0  0  0  4           0  0  0
    1.8675   10.0477   11.2721 C   0  0  0  0  0  4           0  0  0
   -0.1723    1.2180    2.2242 C   0  0  0  0  0  4           0  0  0
   -0.5914    0.0000    1.4065 C   0  0  0  0  0  4           0  0  0
    0.0000    0.0000    0.0000 C   0  0  0  0  0  4           0  0  0
    1.5260   -0.0000    0.0000 C   0  0  0  0  0  4           0  0  0
    2.1174    0.0000   -1.4065 C   0  0  0  0  0  4           0  0  0
    3.6431    0.0000   -1.4065 C   0  0  0  0  0  4           0  0  0
    4.2345    0.0000   -2.8129 C   0  0  0  0  0  4           0  0  0
    5.7602    0.0000   -2.8129 C   0  0  0  0  0  4           0  0  0
    6.3516    0.0000   -4.2194 C   0  0  0  0  0  4           0  0  0
    7.8773    0.0000   -4.2194 C   0  0  0  0  0  4           0  0  0
    8.4687    0.0000   -5.6259 C   0  0  0  0  0  4           0  0  0
    9.9944    0.0000   -5.6259 C   0  0  0  0  0  4           0  0  0
   10.5858    0.0000   -7.0324 C   0  0  0  0  0  4           0  0  0
   12.1071    0.0000   -7.0320 C   0  0  0  0  0  4           0  0  0
  1 10  2  0     0  0
  2 11  2  0     0  0
  3 12  2  0     0  0
  4  5  1  0     0  0
  4  7  1  0     0  0
  5  8  2  0     0  0
  6 10  1  0     0  0
  6 11  1  0     0  0
  6 13  1  0     0  0
  7  9  2  0     0  0
  7 10  1  0     0  0
  8  9  1  0     0  0
  8 12  1  0     0  0
  9 11  1  0     0  0
 12 14  1  0     0  0
 13 15  1  0     0  0
 13 16  1  0     0  0
 14 17  1  0     0  0
 15 18  1  0     0  0
 16 19  1  0     0  0
 17 20  1  0     0  0
 18 21  1  0     0  0
 19 21  1  0     0  0
 20 22  1  0     0  0
 22 23  1  0     0  0
 23 24  1  0     0  0
 24 25  1  0     0  0
 25 26  1  0     0  0
 26 27  1  0     0  0
 27 28  1  0     0  0
 28 29  1  0     0  0
 29 30  1  0     0  0
 30 31  1  0     0  0
 31 32  1  0     0  0
 32 33  1  0     0  0
 33 34  1  0     0  0
 34 35  1  0     0  0
M  END
> <standard_type>
IC50

> <# Confs.>
25

> <canonical_smiles>
O=C1C2=C(C(C(CCCCCCCCCCCCCCCCC)=O)=NN2)C(N1C3CCCCC3)=O

> <standard_relation>
=

> <predicted_activity_value>
5.795880017344075

> <actual_activity_value>
5.534617148551582

> <Compound>
11

> <publication_ID>
nan

> <standard_units>
nM

> hash
4736667858980123097

$$$$
11_
XXILIB    08252103493D 0   0.00000     0.00000

 35 37  0     1  0            999 V2000
  -10.4600   -6.1842   -1.9862 O   0  0  0  0  0  2           0  0  0
   -9.9488   -2.1134    0.2685 O   0  0  0  0  0  2           0  0  0
   -6.9306   -1.4523    0.5680 O   0  0  0  0  0  2           0  0  0
   -7.3792   -5.3382   -1.5983 N   0  0  0  0  0  3           0  0  0
   -6.3977   -4.5098   -1.1611 N   0  0  0  0  0  3           0  0  0
  -10.6238   -4.1186   -0.8243 N   0  0  1  0  0  3           0  0  0
   -8.6044   -4.8674   -1.3004 C   0  0  0  0  0  4           0  0  0
   -7.0514   -3.4851   -0.5696 C   0  0  0  0  0  4           0  0  0
   -8.4331   -3.6869   -0.6457 C   0  0  0  0  0  4           0  0  0
   -9.9808   -5.1997   -1.4476 C   0  0  0  0  0  4           0  0  0
   -9.7272   -3.1602   -0.3172 C   0  0  0  0  0  4           0  0  0
   -6.3342   -2.3824    0.0310 C   0  0  0  0  0  4           0  0  0
  -12.0750   -4.0047   -0.7201 C   0  0  2  0  0  4           0  0  0
   -4.8257   -2.4363   -0.0001 C   0  0  0  0  0  4           0  0  0
  -12.5899   -2.7345   -1.4143 C   0  0  0  0  0  4           0  0  0
  -12.5458   -4.0625    0.7405 C   0  0  0  0  0  4           0  0  0
   -4.2342   -1.2180    0.7032 C   0  0  0  0  0  4           0  0  0
  -14.1080   -2.6113   -1.3035 C   0  0  0  0  0  4           0  0  0
  -14.0644   -3.9398    0.8442 C   0  0  0  0  0  4           0  0  0
   -2.7085   -1.2180    0.7032 C   0  0  0  0  0  4           0  0  0
  -14.5755   -2.6819    0.1475 C   0  0  0  0  0  4           0  0  0
   -2.1171   -0.0000    1.4065 C   0  0  0  0  0  4           0  0  0
   -0.5914   -0.0000    1.4065 C   0  0  0  0  0  4           0  0  0
    0.0000    0.0000    0.0000 C   0  0  0  0  0  4           0  0  0
    1.5260   -0.0000    0.0000 C   0  0  0  0  0  4           0  0  0
    2.1174    0.0000   -1.4065 C   0  0  0  0  0  4           0  0  0
    3.6431    0.0000   -1.4065 C   0  0  0  0  0  4           0  0  0
    4.2345    0.0000   -2.8129 C   0  0  0  0  0  4           0  0  0
    5.7602    0.0000   -2.8129 C   0  0  0  0  0  4           0  0  0
    6.3516    0.0000   -4.2194 C   0  0  0  0  0  4           0  0  0
    7.8773    0.0000   -4.2194 C   0  0  0  0  0  4           0  0  0
    8.4687    0.0000   -5.6259 C   0  0  0  0  0  4           0  0  0
    9.9944    0.0000   -5.6259 C   0  0  0  0  0  4           0  0  0
   10.5858    0.0000   -7.0324 C   0  0  0  0  0  4           0  0  0
   12.1071    0.0000   -7.0320 C   0  0  0  0  0  4           0  0  0
  1 10  2  0     0  0
  2 11  2  0     0  0
  3 12  2  0     0  0
  4  5  1  0     0  0
  4  7  1  0     0  0
  5  8  2  0     0  0
  6 10  1  0     0  0
  6 11  1  0     0  0
  6 13  1  0     0  0
  7  9  2  0     0  0
  7 10  1  0     0  0
  8  9  1  0     0  0
  8 12  1  0     0  0
  9 11  1  0     0  0
 12 14  1  0     0  0
 13 15  1  0     0  0
 13 16  1  0     0  0
 14 17  1  0     0  0
 15 18  1  0     0  0
 16 19  1  0     0  0
 17 20  1  0     0  0
 18 21  1  0     0  0
 19 21  1  0     0  0
 20 22  1  0     0  0
 22 23  1  0     0  0
 23 24  1  0     0  0
 24 25  1  0     0  0
 25 26  1  0     0  0
 26 27  1  0     0  0
 27 28  1  0     0  0
 28 29  1  0     0  0
 29 30  1  0     0  0
 30 31  1  0     0  0
 31 32  1  0     0  0
 32 33  1  0     0  0
 33 34  1  0     0  0
 34 35  1  0     0  0
M  END
> <standard_type>
IC50

> <# Confs.>
25

> <canonical_smiles>
O=C1C2=C(C(C(CCCCCCCCCCCCCCCCC)=O)=NN2)C(N1C3CCCCC3)=O

> <standard_relation>
=

> <predicted_activity_value>
5.795880017344075

> <actual_activity_value>
5.534617148551582

> <Compound>
11

> <publication_ID>
nan

> <standard_units>
nM

> hash
4736667858980123097

$$$$
11_
XXILIB    08252103493D 0   0.00000     0.00000

 35 37  0     1  0            999 V2000
  -10.4600    0.1540    8.4585 O   0  0  0  0  0  2           0  0  0
   -9.9488    0.0712    3.8057 O   0  0  0  0  0  2           0  0  0
   -6.9306   -0.0000    3.0834 O   0  0  0  0  0  2           0  0  0
   -7.3792    0.0669    7.5319 N   0  0  0  0  0  3           0  0  0
   -6.3977    0.0314    6.5959 N   0  0  0  0  0  3           0  0  0
  -10.6238    0.1274    6.0887 N   0  0  1  0  0  3           0  0  0
   -8.6044    0.0895    6.9752 C   0  0  0  0  0  4           0  0  0
   -7.0514    0.0313    5.4127 C   0  0  0  0  0  4           0  0  0
   -8.4331    0.0662    5.6255 C   0  0  0  0  0  4           0  0  0
   -9.9808    0.1281    7.3366 C   0  0  0  0  0  4           0  0  0
   -9.7272    0.0874    5.0051 C   0  0  0  0  0  4           0  0  0
   -6.3342   -0.0000    4.1574 C   0  0  0  0  0  4           0  0  0
  -12.0750    0.1607    5.9380 C   0  0  2  0  0  4           0  0  0
   -4.8257   -0.0000    4.2197 C   0  0  0  0  0  4           0  0  0
  -12.5899   -1.0755    5.1850 C   0  0  0  0  0  4           0  0  0
  -12.5458    1.4545    5.2576 C   0  0  0  0  0  4           0  0  0
   -4.2342   -0.0000    2.8129 C   0  0  0  0  0  4           0  0  0
  -14.1080   -1.0413    5.0229 C   0  0  0  0  0  4           0  0  0
  -14.0644    1.4830    5.0995 C   0  0  0  0  0  4           0  0  0
   -2.7085    0.0000    2.8129 C   0  0  0  0  0  4           0  0  0
  -14.5755    0.2507    4.3586 C   0  0  0  0  0  4           0  0  0
   -2.1171   -0.0000    1.4065 C   0  0  0  0  0  4           0  0  0
   -0.5914    0.0000    1.4065 C   0  0  0  0  0  4           0  0  0
    0.0000   -0.0000    0.0000 C   0  0  0  0  0  4           0  0  0
    1.5260    0.0000   -0.0000 C   0  0  0  0  0  4           0  0  0
    2.1174   -1.2180    0.7032 C   0  0  0  0  0  4           0  0  0
    3.6431   -1.2180    0.7032 C   0  0  0  0  0  4           0  0  0
    4.2345   -2.4361    1.4065 C   0  0  0  0  0  4           0  0  0
    5.7602   -2.4361    1.4065 C   0  0  0  0  0  4           0  0  0
    6.3516   -3.6541    2.1097 C   0  0  0  0  0  4           0  0  0
    7.8773   -3.6541    2.1097 C   0  0  0  0  0  4           0  0  0
    8.4687   -4.8722    2.8129 C   0  0  0  0  0  4           0  0  0
    9.9944   -4.8722    2.8129 C   0  0  0  0  0  4           0  0  0
   10.5858   -6.0902    3.5162 C   0  0  0  0  0  4           0  0  0
   12.1071   -6.0899    3.5160 C   0  0  0  0  0  4           0  0  0
  1 10  2  0     0  0
  2 11  2  0     0  0
  3 12  2  0     0  0
  4  5  1  0     0  0
  4  7  1  0     0  0
  5  8  2  0     0  0
  6 10  1  0     0  0
  6 11  1  0     0  0
  6 13  1  0     0  0
  7  9  2  0     0  0
  7 10  1  0     0  0
  8  9  1  0     0  0
  8 12  1  0     0  0
  9 11  1  0     0  0
 12 14  1  0     0  0
 13 15  1  0     0  0
 13 16  1  0     0  0
 14 17  1  0     0  0
 15 18  1  0     0  0
 16 19  1  0     0  0
 17 20  1  0     0  0
 18 21  1  0     0  0
 19 21  1  0     0  0
 20 22  1  0     0  0
 22 23  1  0     0  0
 23 24  1  0     0  0
 24 25  1  0     0  0
 25 26  1  0     0  0
 26 27  1  0     0  0
 27 28  1  0     0  0
 28 29  1  0     0  0
 29 30  1  0     0  0
 30 31  1  0     0  0
 31 32  1  0     0  0
 32 33  1  0     0  0
 33 34  1  0     0  0
 34 35  1  0     0  0
M  END
> <standard_type>
IC50

> <# Confs.>
25

> <canonical_smiles>
O=C1C2=C(C(C(CCCCCCCCCCCCCCCCC)=O)=NN2)C(N1C3CCCCC3)=O

> <standard_relation>
=

> <predicted_activity_value>
5.795880017344075

> <actual_activity_value>
5.534617148551582

> <Compound>
11

> <publication_ID>
nan

> <standard_units>
nM

> hash
4736667858980123097

$$$$
11_
XXILIB    08252103493D 0   0.00000     0.00000

 35 37  0     1  0            999 V2000
  -10.4600    0.1540    8.4585 O   0  0  0  0  0  2           0  0  0
   -9.9488    0.0712    3.8057 O   0  0  0  0  0  2           0  0  0
   -6.9306   -0.0000    3.0834 O   0  0  0  0  0  2           0  0  0
   -7.3792    0.0669    7.5319 N   0  0  0  0  0  3           0  0  0
   -6.3977    0.0314    6.5959 N   0  0  0  0  0  3           0  0  0
  -10.6238    0.1274    6.0887 N   0  0  1  0  0  3           0  0  0
   -8.6044    0.0895    6.9752 C   0  0  0  0  0  4           0  0  0
   -7.0514    0.0313    5.4127 C   0  0  0  0  0  4           0  0  0
   -8.4331    0.0662    5.6255 C   0  0  0  0  0  4           0  0  0
   -9.9808    0.1281    7.3366 C   0  0  0  0  0  4           0  0  0
   -9.7272    0.0874    5.0051 C   0  0  0  0  0  4           0  0  0
   -6.3342   -0.0000    4.1574 C   0  0  0  0  0  4           0  0  0
  -12.0750    0.1607    5.9380 C   0  0  2  0  0  4           0  0  0
   -4.8257   -0.0000    4.2197 C   0  0  0  0  0  4           0  0  0
  -12.5899   -1.0755    5.1850 C   0  0  0  0  0  4           0  0  0
  -12.5458    1.4545    5.2576 C   0  0  0  0  0  4           0  0  0
   -4.2342   -0.0000    2.8129 C   0  0  0  0  0  4           0  0  0
  -14.1080   -1.0413    5.0229 C   0  0  0  0  0  4           0  0  0
  -14.0644    1.4830    5.0995 C   0  0  0  0  0  4           0  0  0
   -2.7085    0.0000    2.8129 C   0  0  0  0  0  4           0  0  0
  -14.5755    0.2507    4.3586 C   0  0  0  0  0  4           0  0  0
   -2.1171   -0.0000    1.4065 C   0  0  0  0  0  4           0  0  0
   -0.5914    0.0000    1.4065 C   0  0  0  0  0  4           0  0  0
    0.0000   -0.0000    0.0000 C   0  0  0  0  0  4           0  0  0
    1.5260   -0.0000    0.0000 C   0  0  0  0  0  4           0  0  0
    2.1174   -0.0000   -1.4065 C   0  0  0  0  0  4           0  0  0
    1.6983    1.2180   -2.2242 C   0  0  0  0  0  4           0  0  0
    2.2897    1.2180   -3.6307 C   0  0  0  0  0  4           0  0  0
    1.8706    2.4361   -4.4484 C   0  0  0  0  0  4           0  0  0
    2.4620    2.4361   -5.8548 C   0  0  0  0  0  4           0  0  0
    2.0429    3.6541   -6.6725 C   0  0  0  0  0  4           0  0  0
    2.6343    3.6541   -8.0790 C   0  0  0  0  0  4           0  0  0
    2.2152    4.8722   -8.8967 C   0  0  0  0  0  4           0  0  0
    2.8066    4.8722  -10.3032 C   0  0  0  0  0  4           0  0  0
    2.3885    6.0868  -11.1182 C   0  0  0  0  0  4           0  0  0
  1 10  2  0     0  0
  2 11  2  0     0  0
  3 12  2  0     0  0
  4  5  1  0     0  0
  4  7  1  0     0  0
  5  8  2  0     0  0
  6 10  1  0     0  0
  6 11  1  0     0  0
  6 13  1  0     0  0
  7  9  2  0     0  0
  7 10  1  0     0  0
  8  9  1  0     0  0
  8 12  1  0     0  0
  9 11  1  0     0  0
 12 14  1  0     0  0
 13 15  1  0     0  0
 13 16  1  0     0  0
 14 17  1  0     0  0
 15 18  1  0     0  0
 16 19  1  0     0  0
 17 20  1  0     0  0
 18 21  1  0     0  0
 19 21  1  0     0  0
 20 22  1  0     0  0
 22 23  1  0     0  0
 23 24  1  0     0  0
 24 25  1  0     0  0
 25 26  1  0     0  0
 26 27  1  0     0  0
 27 28  1  0     0  0
 28 29  1  0     0  0
 29 30  1  0     0  0
 30 31  1  0     0  0
 31 32  1  0     0  0
 32 33  1  0     0  0
 33 34  1  0     0  0
 34 35  1  0     0  0
M  END
> <standard_type>
IC50

> <# Confs.>
25

> <canonical_smiles>
O=C1C2=C(C(C(CCCCCCCCCCCCCCCCC)=O)=NN2)C(N1C3CCCCC3)=O

> <standard_relation>
=

> <predicted_activity_value>
5.795880017344075

> <actual_activity_value>
5.534617148551582

> <Compound>
11

> <publication_ID>
nan

> <standard_units>
nM

> hash
4736667858980123097

$$$$
11_
XXILIB    08252103493D 0   0.00000     0.00000

 35 37  0     1  0            999 V2000
  -10.4600    0.1540    8.4585 O   0  0  0  0  0  2           0  0  0
   -9.9488    0.0712    3.8057 O   0  0  0  0  0  2           0  0  0
   -6.9306   -0.0000    3.0834 O   0  0  0  0  0  2           0  0  0
   -7.3792    0.0669    7.5319 N   0  0  0  0  0  3           0  0  0
   -6.3977    0.0314    6.5959 N   0  0  0  0  0  3           0  0  0
  -10.6238    0.1274    6.0887 N   0  0  1  0  0  3           0  0  0
   -8.6044    0.0895    6.9752 C   0  0  0  0  0  4           0  0  0
   -7.0514    0.0313    5.4127 C   0  0  0  0  0  4           0  0  0
   -8.4331    0.0662    5.6255 C   0  0  0  0  0  4           0  0  0
   -9.9808    0.1281    7.3366 C   0  0  0  0  0  4           0  0  0
   -9.7272    0.0874    5.0051 C   0  0  0  0  0  4           0  0  0
   -6.3342   -0.0000    4.1574 C   0  0  0  0  0  4           0  0  0
  -12.0750    0.1607    5.9380 C   0  0  2  0  0  4           0  0  0
   -4.8257   -0.0000    4.2197 C   0  0  0  0  0  4           0  0  0
  -12.5899   -1.0755    5.1850 C   0  0  0  0  0  4           0  0  0
  -12.5458    1.4545    5.2576 C   0  0  0  0  0  4           0  0  0
   -4.2342   -0.0000    2.8129 C   0  0  0  0  0  4           0  0  0
  -14.1080   -1.0413    5.0229 C   0  0  0  0  0  4           0  0  0
  -14.0644    1.4830    5.0995 C   0  0  0  0  0  4           0  0  0
   -2.7085    0.0000    2.8129 C   0  0  0  0  0  4           0  0  0
  -14.5755    0.2507    4.3586 C   0  0  0  0  0  4           0  0  0
   -2.1171   -0.0000    1.4065 C   0  0  0  0  0  4           0  0  0
   -0.5914    0.0000    1.4065 C   0  0  0  0  0  4           0  0  0
    0.0000   -0.0000    0.0000 C   0  0  0  0  0  4           0  0  0
    1.5260   -0.0000   -0.0000 C   0  0  0  0  0  4           0  0  0
    2.1174   -0.0000   -1.4065 C   0  0  0  0  0  4           0  0  0
    3.6431   -0.0000   -1.4065 C   0  0  0  0  0  4           0  0  0
    4.2345   -0.0000   -2.8129 C   0  0  0  0  0  4           0  0  0
    3.8154    1.2180   -3.6307 C   0  0  0  0  0  4           0  0  0
    4.4068    1.2180   -5.0371 C   0  0  0  0  0  4           0  0  0
    3.9877    2.4361   -5.8548 C   0  0  0  0  0  4           0  0  0
    4.5791    2.4361   -7.2613 C   0  0  0  0  0  4           0  0  0
    4.1600    3.6541   -8.0790 C   0  0  0  0  0  4           0  0  0
    4.7514    3.6541   -9.4855 C   0  0  0  0  0  4           0  0  0
    4.3333    4.8687  -10.3005 C   0  0  0  0  0  4           0  0  0
  1 10  2  0     0  0
  2 11  2  0     0  0
  3 12  2  0     0  0
  4  5  1  0     0  0
  4  7  1  0     0  0
  5  8  2  0     0  0
  6 10  1  0     0  0
  6 11  1  0     0  0
  6 13  1  0     0  0
  7  9  2  0     0  0
  7 10  1  0     0  0
  8  9  1  0     0  0
  8 12  1  0     0  0
  9 11  1  0     0  0
 12 14  1  0     0  0
 13 15  1  0     0  0
 13 16  1  0     0  0
 14 17  1  0     0  0
 15 18  1  0     0  0
 16 19  1  0     0  0
 17 20  1  0     0  0
 18 21  1  0     0  0
 19 21  1  0     0  0
 20 22  1  0     0  0
 22 23  1  0     0  0
 23 24  1  0     0  0
 24 25  1  0     0  0
 25 26  1  0     0  0
 26 27  1  0     0  0
 27 28  1  0     0  0
 28 29  1  0     0  0
 29 30  1  0     0  0
 30 31  1  0     0  0
 31 32  1  0     0  0
 32 33  1  0     0  0
 33 34  1  0     0  0
 34 35  1  0     0  0
M  END
> <standard_type>
IC50

> <# Confs.>
25

> <canonical_smiles>
O=C1C2=C(C(C(CCCCCCCCCCCCCCCCC)=O)=NN2)C(N1C3CCCCC3)=O

> <standard_relation>
=

> <predicted_activity_value>
5.795880017344075

> <actual_activity_value>
5.534617148551582

> <Compound>
11

> <publication_ID>
nan

> <standard_units>
nM

> hash
4736667858980123097

$$$$
11_
XXILIB    08252103493D 0   0.00000     0.00000

 35 37  0     1  0            999 V2000
  -10.4600    0.1540    8.4585 O   0  0  0  0  0  2           0  0  0
   -9.9488    0.0712    3.8057 O   0  0  0  0  0  2           0  0  0
   -6.9306   -0.0000    3.0834 O   0  0  0  0  0  2           0  0  0
   -7.3792    0.0669    7.5319 N   0  0  0  0  0  3           0  0  0
   -6.3977    0.0314    6.5959 N   0  0  0  0  0  3           0  0  0
  -10.6238    0.1274    6.0887 N   0  0  1  0  0  3           0  0  0
   -8.6044    0.0895    6.9752 C   0  0  0  0  0  4           0  0  0
   -7.0514    0.0313    5.4127 C   0  0  0  0  0  4           0  0  0
   -8.4331    0.0662    5.6255 C   0  0  0  0  0  4           0  0  0
   -9.9808    0.1281    7.3366 C   0  0  0  0  0  4           0  0  0
   -9.7272    0.0874    5.0051 C   0  0  0  0  0  4           0  0  0
   -6.3342   -0.0000    4.1574 C   0  0  0  0  0  4           0  0  0
  -12.0750    0.1607    5.9380 C   0  0  2  0  0  4           0  0  0
   -4.8257   -0.0000    4.2197 C   0  0  0  0  0  4           0  0  0
  -12.5899   -1.0755    5.1850 C   0  0  0  0  0  4           0  0  0
  -12.5458    1.4545    5.2576 C   0  0  0  0  0  4           0  0  0
   -4.2342   -0.0000    2.8129 C   0  0  0  0  0  4           0  0  0
  -14.1080   -1.0413    5.0229 C   0  0  0  0  0  4           0  0  0
  -14.0644    1.4830    5.0995 C   0  0  0  0  0  4           0  0  0
   -2.7085    0.0000    2.8129 C   0  0  0  0  0  4           0  0  0
  -14.5755    0.2507    4.3586 C   0  0  0  0  0  4           0  0  0
   -2.1171   -0.0000    1.4065 C   0  0  0  0  0  4           0  0  0
   -0.5914    0.0000    1.4065 C   0  0  0  0  0  4           0  0  0
    0.0000   -0.0000    0.0000 C   0  0  0  0  0  4           0  0  0
    1.5260   -0.0000   -0.0000 C   0  0  0  0  0  4           0  0  0
    2.1174    0.0000   -1.4065 C   0  0  0  0  0  4           0  0  0
    3.6431   -0.0000   -1.4065 C   0  0  0  0  0  4           0  0  0
    4.2345   -1.2180   -0.7032 C   0  0  0  0  0  4           0  0  0
    5.7602   -1.2180   -0.7032 C   0  0  0  0  0  4           0  0  0
    6.3516   -2.4361    0.0000 C   0  0  0  0  0  4           0  0  0
    7.8773   -2.4361    0.0000 C   0  0  0  0  0  4           0  0  0
    8.4687   -3.6541    0.7032 C   0  0  0  0  0  4           0  0  0
    9.9944   -3.6541    0.7032 C   0  0  0  0  0  4           0  0  0
   10.5858   -4.8722    1.4065 C   0  0  0  0  0  4           0  0  0
   12.1071   -4.8719    1.4063 C   0  0  0  0  0  4           0  0  0
  1 10  2  0     0  0
  2 11  2  0     0  0
  3 12  2  0     0  0
  4  5  1  0     0  0
  4  7  1  0     0  0
  5  8  2  0     0  0
  6 10  1  0     0  0
  6 11  1  0     0  0
  6 13  1  0     0  0
  7  9  2  0     0  0
  7 10  1  0     0  0
  8  9  1  0     0  0
  8 12  1  0     0  0
  9 11  1  0     0  0
 12 14  1  0     0  0
 13 15  1  0     0  0
 13 16  1  0     0  0
 14 17  1  0     0  0
 15 18  1  0     0  0
 16 19  1  0     0  0
 17 20  1  0     0  0
 18 21  1  0     0  0
 19 21  1  0     0  0
 20 22  1  0     0  0
 22 23  1  0     0  0
 23 24  1  0     0  0
 24 25  1  0     0  0
 25 26  1  0     0  0
 26 27  1  0     0  0
 27 28  1  0     0  0
 28 29  1  0     0  0
 29 30  1  0     0  0
 30 31  1  0     0  0
 31 32  1  0     0  0
 32 33  1  0     0  0
 33 34  1  0     0  0
 34 35  1  0     0  0
M  END
> <standard_type>
IC50

> <# Confs.>
25

> <canonical_smiles>
O=C1C2=C(C(C(CCCCCCCCCCCCCCCCC)=O)=NN2)C(N1C3CCCCC3)=O

> <standard_relation>
=

> <predicted_activity_value>
5.795880017344075

> <actual_activity_value>
5.534617148551582

> <Compound>
11

> <publication_ID>
nan

> <standard_units>
nM

> hash
4736667858980123097

$$$$
16_
XXILIB    08252103493D 0   0.00000     0.00000

 25 25  0     1  0            999 V2000
   -7.1659    0.0133    2.0447 O   0  0  0  0  0  2           0  0  0
   -4.2081    0.0000    5.1960 O   0  0  0  0  0  2           0  0  0
   -8.6401   -0.0423    3.8012 O   0  0  0  0  0  2           0  0  0
   -6.5987   -0.0493    6.7329 O   0  0  0  0  0  2           0  0  0
   -8.6755    2.3682    5.2468 O   0  0  0  0  0  2           0  0  0
   -7.3927   -0.0072    3.2424 C   0  0  0  0  0  4           0  0  0
   -4.9046    0.0000    4.1816 C   0  0  0  0  0  4           0  0  0
   -7.0768   -0.0228    5.4543 C   0  0  0  0  0  4           0  0  0
   -8.5390   -0.0387    5.2329 C   0  0  1  0  0  4           0  0  0
   -9.2671    1.1831    5.7721 C   0  0  0  0  0  4           0  0  0
   -6.3828   -0.0061    4.3151 C   0  0  0  0  0  4           0  0  0
   -4.3073    0.0000    2.7876 C   0  0  0  0  0  4           0  0  0
   -2.7795    0.0000    2.7876 C   0  0  0  0  0  4           0  0  0
   -2.1537   -0.0000    1.3938 C   0  0  0  0  0  4           0  0  0
   -0.6258    0.0000    1.3938 C   0  0  0  0  0  4           0  0  0
    0.0000    0.0000    0.0000 C   0  0  0  0  0  4           0  0  0
    1.5279   -0.0000   -0.0000 C   0  0  0  0  0  4           0  0  0
    2.1537    0.0000   -1.3938 C   0  0  0  0  0  4           0  0  0
    3.6815    0.0000   -1.3938 C   0  0  0  0  0  4           0  0  0
    4.3073    0.0000   -2.7876 C   0  0  0  0  0  4           0  0  0
    5.8352    0.0000   -2.7876 C   0  0  0  0  0  4           0  0  0
    6.4610    0.0000   -4.1814 C   0  0  0  0  0  4           0  0  0
    7.9889    0.0000   -4.1814 C   0  0  0  0  0  4           0  0  0
    8.6147    0.0000   -5.5752 C   0  0  0  0  0  4           0  0  0
   10.1337    0.0000   -5.5054 C   0  0  0  0  0  4           0  0  0
  1  6  2  0     0  0
  2  7  2  0     0  0
  3  6  1  0     0  0
  3  9  1  0     0  0
  4  8  1  0     0  0
  5 10  1  0     0  0
  6 11  1  0     0  0
  7 11  1  0     0  0
  7 12  1  0     0  0
  8  9  1  0     0  0
  8 11  2  0     0  0
  9 10  1  0     0  0
 12 13  1  0     0  0
 13 14  1  0     0  0
 14 15  1  0     0  0
 15 16  1  0     0  0
 16 17  1  0     0  0
 17 18  1  0     0  0
 18 19  1  0     0  0
 19 20  1  0     0  0
 20 21  1  0     0  0
 21 22  1  0     0  0
 22 23  1  0     0  0
 23 24  1  0     0  0
 24 25  1  0     0  0
M  END
> <standard_type>
IC50

> <# Confs.>
25

> <canonical_smiles>
OC([C@@H](CO)O1)=C(C(CCCCCCCCCCCCCC)=O)C1=O

> <standard_relation>
=

> <predicted_activity_value>
4.494850021680094

> <actual_activity_value>
4.7447274948966935

> <Compound>
16

> <publication_ID>
nan

> <standard_units>
nM

> hash
16781839770707237844

$$$$
16_
XXILIB    08252103493D 0   0.00000     0.00000

 25 25  0     1  0            999 V2000
   -1.2843   -3.7357    4.6855 O   0  0  0  0  0  2           0  0  0
   -3.7746   -0.2744    5.3906 O   0  0  0  0  0  2           0  0  0
   -1.8587   -4.2495    6.8460 O   0  0  0  0  0  2           0  0  0
   -4.0034   -1.5932    7.8982 O   0  0  0  0  0  2           0  0  0
   -4.5646   -4.9699    7.0926 O   0  0  0  0  0  2           0  0  0
   -1.8830   -3.4797    5.7162 C   0  0  0  0  0  4           0  0  0
   -3.0330   -1.1845    5.0219 C   0  0  0  0  0  4           0  0  0
   -3.1889   -2.4377    7.1999 C   0  0  0  0  0  4           0  0  0
   -2.6891   -3.6635    7.8595 C   0  0  1  0  0  4           0  0  0
   -3.7758   -4.6583    8.2377 C   0  0  0  0  0  4           0  0  0
   -2.7359   -2.3019    5.9525 C   0  0  0  0  0  4           0  0  0
   -2.4000   -1.2071    3.6440 C   0  0  0  0  0  4           0  0  0
   -2.7795    0.0000    2.7876 C   0  0  0  0  0  4           0  0  0
   -2.1537    0.0000    1.3938 C   0  0  0  0  0  4           0  0  0
   -0.6258   -0.0000    1.3938 C   0  0  0  0  0  4           0  0  0
   -0.0000    0.0000    0.0000 C   0  0  0  0  0  4           0  0  0
    1.5279   -0.0000   -0.0000 C   0  0  0  0  0  4           0  0  0
    2.1537    0.0000   -1.3938 C   0  0  0  0  0  4           0  0  0
    3.6815    0.0000   -1.3938 C   0  0  0  0  0  4           0  0  0
    4.3073    0.0000   -2.7876 C   0  0  0  0  0  4           0  0  0
    5.8352    0.0000   -2.7876 C   0  0  0  0  0  4           0  0  0
    6.4610    0.0000   -4.1814 C   0  0  0  0  0  4           0  0  0
    7.9889    0.0000   -4.1814 C   0  0  0  0  0  4           0  0  0
    8.6147    0.0000   -5.5752 C   0  0  0  0  0  4           0  0  0
   10.1337    0.0000   -5.5054 C   0  0  0  0  0  4           0  0  0
  1  6  2  0     0  0
  2  7  2  0     0  0
  3  6  1  0     0  0
  3  9  1  0     0  0
  4  8  1  0     0  0
  5 10  1  0     0  0
  6 11  1  0     0  0
  7 11  1  0     0  0
  7 12  1  0     0  0
  8  9  1  0     0  0
  8 11  2  0     0  0
  9 10  1  0     0  0
 12 13  1  0     0  0
 13 14  1  0     0  0
 14 15  1  0     0  0
 15 16  1  0     0  0
 16 17  1  0     0  0
 17 18  1  0     0  0
 18 19  1  0     0  0
 19 20  1  0     0  0
 20 21  1  0     0  0
 21 22  1  0     0  0
 22 23  1  0     0  0
 23 24  1  0     0  0
 24 25  1  0     0  0
M  END
> <standard_type>
IC50

> <# Confs.>
25

> <canonical_smiles>
OC([C@@H](CO)O1)=C(C(CCCCCCCCCCCCCC)=O)C1=O

> <standard_relation>
=

> <predicted_activity_value>
4.494850021680094

> <actual_activity_value>
4.7447274948966935

> <Compound>
16

> <publication_ID>
nan

> <standard_units>
nM

> hash
16781839770707237844

$$$$
16_
XXILIB    08252103493D 0   0.00000     0.00000

 25 25  0     1  0            999 V2000
   -7.1659    0.0133    2.0447 O   0  0  0  0  0  2           0  0  0
   -4.2081    0.0000    5.1960 O   0  0  0  0  0  2           0  0  0
   -8.6401   -0.0423    3.8012 O   0  0  0  0  0  2           0  0  0
   -6.5987   -0.0493    6.7329 O   0  0  0  0  0  2           0  0  0
   -8.6755    2.3682    5.2468 O   0  0  0  0  0  2           0  0  0
   -7.3927   -0.0072    3.2424 C   0  0  0  0  0  4           0  0  0
   -4.9046    0.0000    4.1816 C   0  0  0  0  0  4           0  0  0
   -7.0768   -0.0228    5.4543 C   0  0  0  0  0  4           0  0  0
   -8.5390   -0.0387    5.2329 C   0  0  1  0  0  4           0  0  0
   -9.2671    1.1831    5.7721 C   0  0  0  0  0  4           0  0  0
   -6.3828   -0.0061    4.3151 C   0  0  0  0  0  4           0  0  0
   -4.3073    0.0000    2.7876 C   0  0  0  0  0  4           0  0  0
   -2.7795    0.0000    2.7876 C   0  0  0  0  0  4           0  0  0
   -2.1537   -0.0000    1.3938 C   0  0  0  0  0  4           0  0  0
   -0.6258    0.0000    1.3938 C   0  0  0  0  0  4           0  0  0
    0.0000    0.0000    0.0000 C   0  0  0  0  0  4           0  0  0
    1.5279   -0.0000   -0.0000 C   0  0  0  0  0  4           0  0  0
    2.1537    0.0000   -1.3938 C   0  0  0  0  0  4           0  0  0
    3.6815    0.0000   -1.3938 C   0  0  0  0  0  4           0  0  0
    4.3073    0.0000   -2.7876 C   0  0  0  0  0  4           0  0  0
    5.8352    0.0000   -2.7876 C   0  0  0  0  0  4           0  0  0
    6.4610    0.0000   -4.1814 C   0  0  0  0  0  4           0  0  0
    7.9889    0.0000   -4.1814 C   0  0  0  0  0  4           0  0  0
    8.6147   -1.2071   -3.4845 C   0  0  0  0  0  4           0  0  0
   10.1337   -1.1466   -3.5194 C   0  0  0  0  0  4           0  0  0
  1  6  2  0     0  0
  2  7  2  0     0  0
  3  6  1  0     0  0
  3  9  1  0     0  0
  4  8  1  0     0  0
  5 10  1  0     0  0
  6 11  1  0     0  0
  7 11  1  0     0  0
  7 12  1  0     0  0
  8  9  1  0     0  0
  8 11  2  0     0  0
  9 10  1  0     0  0
 12 13  1  0     0  0
 13 14  1  0     0  0
 14 15  1  0     0  0
 15 16  1  0     0  0
 16 17  1  0     0  0
 17 18  1  0     0  0
 18 19  1  0     0  0
 19 20  1  0     0  0
 20 21  1  0     0  0
 21 22  1  0     0  0
 22 23  1  0     0  0
 23 24  1  0     0  0
 24 25  1  0     0  0
M  END
> <standard_type>
IC50

> <# Confs.>
25

> <canonical_smiles>
OC([C@@H](CO)O1)=C(C(CCCCCCCCCCCCCC)=O)C1=O

> <standard_relation>
=

> <predicted_activity_value>
4.494850021680094

> <actual_activity_value>
4.7447274948966935

> <Compound>
16

> <publication_ID>
nan

> <standard_units>
nM

> hash
16781839770707237844

$$$$
16_
XXILIB    08252103493D 0   0.00000     0.00000

 25 25  0     1  0            999 V2000
   -1.2632    3.7223    4.6950 O   0  0  0  0  0  2           0  0  0
   -3.7746    0.2744    5.3906 O   0  0  0  0  0  2           0  0  0
   -1.9256    4.2918    6.8159 O   0  0  0  0  0  2           0  0  0
   -4.0813    1.6425    7.8632 O   0  0  0  0  0  2           0  0  0
   -0.8227    2.6017    8.7727 O   0  0  0  0  0  2           0  0  0
   -1.8944    3.4869    5.7111 C   0  0  0  0  0  4           0  0  0
   -3.0330    1.1845    5.0219 C   0  0  0  0  0  4           0  0  0
   -3.2250    2.4605    7.1837 C   0  0  0  0  0  4           0  0  0
   -2.7504    3.7022    7.8320 C   0  0  1  0  0  4           0  0  0
   -1.9065    3.4753    9.0770 C   0  0  0  0  0  4           0  0  0
   -2.7456    2.3080    5.9482 C   0  0  0  0  0  4           0  0  0
   -2.4000    1.2071    3.6440 C   0  0  0  0  0  4           0  0  0
   -2.7795   -0.0000    2.7876 C   0  0  0  0  0  4           0  0  0
   -2.1537   -0.0000    1.3938 C   0  0  0  0  0  4           0  0  0
   -0.6258    0.0000    1.3938 C   0  0  0  0  0  4           0  0  0
    0.0000   -0.0000    0.0000 C   0  0  0  0  0  4           0  0  0
    1.5279   -0.0000   -0.0000 C   0  0  0  0  0  4           0  0  0
    2.1537    0.0000   -1.3938 C   0  0  0  0  0  4           0  0  0
    3.6815    0.0000   -1.3938 C   0  0  0  0  0  4           0  0  0
    4.3073    0.0000   -2.7876 C   0  0  0  0  0  4           0  0  0
    5.8352    0.0000   -2.7876 C   0  0  0  0  0  4           0  0  0
    6.4610    0.0000   -4.1814 C   0  0  0  0  0  4           0  0  0
    7.9889    0.0000   -4.1814 C   0  0  0  0  0  4           0  0  0
    8.6147    0.0000   -5.5752 C   0  0  0  0  0  4           0  0  0
   10.1337    0.0000   -5.5054 C   0  0  0  0  0  4           0  0  0
  1  6  2  0     0  0
  2  7  2  0     0  0
  3  6  1  0     0  0
  3  9  1  0     0  0
  4  8  1  0     0  0
  5 10  1  0     0  0
  6 11  1  0     0  0
  7 11  1  0     0  0
  7 12  1  0     0  0
  8  9  1  0     0  0
  8 11  2  0     0  0
  9 10  1  0     0  0
 12 13  1  0     0  0
 13 14  1  0     0  0
 14 15  1  0     0  0
 15 16  1  0     0  0
 16 17  1  0     0  0
 17 18  1  0     0  0
 18 19  1  0     0  0
 19 20  1  0     0  0
 20 21  1  0     0  0
 21 22  1  0     0  0
 22 23  1  0     0  0
 23 24  1  0     0  0
 24 25  1  0     0  0
M  END
> <standard_type>
IC50

> <# Confs.>
25

> <canonical_smiles>
OC([C@@H](CO)O1)=C(C(CCCCCCCCCCCCCC)=O)C1=O

> <standard_relation>
=

> <predicted_activity_value>
4.494850021680094

> <actual_activity_value>
4.7447274948966935

> <Compound>
16

> <publication_ID>
nan

> <standard_units>
nM

> hash
16781839770707237844

$$$$
16_
XXILIB    08252103493D 0   0.00000     0.00000

 25 25  0     1  0            999 V2000
   -7.1659    0.0133    2.0447 O   0  0  0  0  0  2           0  0  0
   -4.2081    0.0000    5.1960 O   0  0  0  0  0  2           0  0  0
   -8.6401   -0.0423    3.8012 O   0  0  0  0  0  2           0  0  0
   -6.5987   -0.0493    6.7329 O   0  0  0  0  0  2           0  0  0
   -8.6755    2.3682    5.2468 O   0  0  0  0  0  2           0  0  0
   -7.3927   -0.0072    3.2424 C   0  0  0  0  0  4           0  0  0
   -4.9046    0.0000    4.1816 C   0  0  0  0  0  4           0  0  0
   -7.0768   -0.0228    5.4543 C   0  0  0  0  0  4           0  0  0
   -8.5390   -0.0387    5.2329 C   0  0  1  0  0  4           0  0  0
   -9.2671    1.1831    5.7721 C   0  0  0  0  0  4           0  0  0
   -6.3828   -0.0061    4.3151 C   0  0  0  0  0  4           0  0  0
   -4.3073    0.0000    2.7876 C   0  0  0  0  0  4           0  0  0
   -2.7795    0.0000    2.7876 C   0  0  0  0  0  4           0  0  0
   -2.1537   -0.0000    1.3938 C   0  0  0  0  0  4           0  0  0
   -0.6258    0.0000    1.3938 C   0  0  0  0  0  4           0  0  0
    0.0000    0.0000    0.0000 C   0  0  0  0  0  4           0  0  0
    1.5279   -0.0000   -0.0000 C   0  0  0  0  0  4           0  0  0
    2.1537    0.0000   -1.3938 C   0  0  0  0  0  4           0  0  0
    3.6815    0.0000   -1.3938 C   0  0  0  0  0  4           0  0  0
    4.3073    0.0000   -2.7876 C   0  0  0  0  0  4           0  0  0
    5.8352    0.0000   -2.7876 C   0  0  0  0  0  4           0  0  0
    6.4610    0.0000   -4.1814 C   0  0  0  0  0  4           0  0  0
    7.9889    0.0000   -4.1814 C   0  0  0  0  0  4           0  0  0
    8.6147    1.2071   -3.4845 C   0  0  0  0  0  4           0  0  0
   10.1337    1.1466   -3.5194 C   0  0  0  0  0  4           0  0  0
  1  6  2  0     0  0
  2  7  2  0     0  0
  3  6  1  0     0  0
  3  9  1  0     0  0
  4  8  1  0     0  0
  5 10  1  0     0  0
  6 11  1  0     0  0
  7 11  1  0     0  0
  7 12  1  0     0  0
  8  9  1  0     0  0
  8 11  2  0     0  0
  9 10  1  0     0  0
 12 13  1  0     0  0
 13 14  1  0     0  0
 14 15  1  0     0  0
 15 16  1  0     0  0
 16 17  1  0     0  0
 17 18  1  0     0  0
 18 19  1  0     0  0
 19 20  1  0     0  0
 20 21  1  0     0  0
 21 22  1  0     0  0
 22 23  1  0     0  0
 23 24  1  0     0  0
 24 25  1  0     0  0
M  END
> <standard_type>
IC50

> <# Confs.>
25

> <canonical_smiles>
OC([C@@H](CO)O1)=C(C(CCCCCCCCCCCCCC)=O)C1=O

> <standard_relation>
=

> <predicted_activity_value>
4.494850021680094

> <actual_activity_value>
4.7447274948966935

> <Compound>
16

> <publication_ID>
nan

> <standard_units>
nM

> hash
16781839770707237844

$$$$
16_
XXILIB    08252103493D 0   0.00000     0.00000

 25 25  0     1  0            999 V2000
   -7.1659    0.5570    1.0568 O   0  0  0  0  0  2           0  0  0
   -4.2081    3.2928   -0.5073 O   0  0  0  0  0  2           0  0  0
   -8.6401    2.1060    0.2268 O   0  0  0  0  0  2           0  0  0
   -6.5987    4.6484   -1.2331 O   0  0  0  0  0  2           0  0  0
   -8.6755    2.1527   -2.5836 O   0  0  0  0  0  2           0  0  0
   -7.3927    1.6045    0.4758 C   0  0  0  0  0  4           0  0  0
   -4.9046    2.4143   -0.0001 C   0  0  0  0  0  4           0  0  0
   -7.0768    3.5279   -0.6167 C   0  0  0  0  0  4           0  0  0
   -8.5390    3.3441   -0.4922 C   0  0  1  0  0  4           0  0  0
   -9.2671    3.2002   -1.8199 C   0  0  0  0  0  4           0  0  0
   -6.3828    2.5330   -0.0616 C   0  0  0  0  0  4           0  0  0
   -4.3073    1.2071    0.6969 C   0  0  0  0  0  4           0  0  0
   -2.7795    1.2071    0.6969 C   0  0  0  0  0  4           0  0  0
   -2.1537   -0.0000    1.3938 C   0  0  0  0  0  4           0  0  0
   -0.6258   -0.0000    1.3938 C   0  0  0  0  0  4           0  0  0
    0.0000    0.0000    0.0000 C   0  0  0  0  0  4           0  0  0
    1.5279   -0.0000   -0.0000 C   0  0  0  0  0  4           0  0  0
    2.1537    0.0000   -1.3938 C   0  0  0  0  0  4           0  0  0
    3.6815    0.0000   -1.3938 C   0  0  0  0  0  4           0  0  0
    4.3073    0.0000   -2.7876 C   0  0  0  0  0  4           0  0  0
    5.8352    0.0000   -2.7876 C   0  0  0  0  0  4           0  0  0
    6.4610    0.0000   -4.1814 C   0  0  0  0  0  4           0  0  0
    7.9889    0.0000   -4.1814 C   0  0  0  0  0  4           0  0  0
    8.6147    0.0000   -5.5752 C   0  0  0  0  0  4           0  0  0
   10.1337    0.0000   -5.5054 C   0  0  0  0  0  4           0  0  0
  1  6  2  0     0  0
  2  7  2  0     0  0
  3  6  1  0     0  0
  3  9  1  0     0  0
  4  8  1  0     0  0
  5 10  1  0     0  0
  6 11  1  0     0  0
  7 11  1  0     0  0
  7 12  1  0     0  0
  8  9  1  0     0  0
  8 11  2  0     0  0
  9 10  1  0     0  0
 12 13  1  0     0  0
 13 14  1  0     0  0
 14 15  1  0     0  0
 15 16  1  0     0  0
 16 17  1  0     0  0
 17 18  1  0     0  0
 18 19  1  0     0  0
 19 20  1  0     0  0
 20 21  1  0     0  0
 21 22  1  0     0  0
 22 23  1  0     0  0
 23 24  1  0     0  0
 24 25  1  0     0  0
M  END
> <standard_type>
IC50

> <# Confs.>
25

> <canonical_smiles>
OC([C@@H](CO)O1)=C(C(CCCCCCCCCCCCCC)=O)C1=O

> <standard_relation>
=

> <predicted_activity_value>
4.494850021680094

> <actual_activity_value>
4.7447274948966935

> <Compound>
16

> <publication_ID>
nan

> <standard_units>
nM

> hash
16781839770707237844

$$$$
16_
XXILIB    08252103493D 0   0.00000     0.00000

 25 25  0     1  0            999 V2000
   -7.1659   -0.5704    1.0799 O   0  0  0  0  0  2           0  0  0
   -4.2081   -3.2928   -0.5073 O   0  0  0  0  0  2           0  0  0
   -8.6401   -2.0637    0.1535 O   0  0  0  0  0  2           0  0  0
   -6.5987   -4.5991   -1.3184 O   0  0  0  0  0  2           0  0  0
   -8.6755   -4.5209    1.5182 O   0  0  0  0  0  2           0  0  0
   -7.3927   -1.5973    0.4633 C   0  0  0  0  0  4           0  0  0
   -4.9046   -2.4143   -0.0001 C   0  0  0  0  0  4           0  0  0
   -7.0768   -3.5051   -0.6562 C   0  0  0  0  0  4           0  0  0
   -8.5390   -3.3054   -0.5593 C   0  0  1  0  0  4           0  0  0
   -9.2671   -4.3833    0.2292 C   0  0  0  0  0  4           0  0  0
   -6.3828   -2.5269   -0.0721 C   0  0  0  0  0  4           0  0  0
   -4.3073   -1.2071    0.6969 C   0  0  0  0  0  4           0  0  0
   -2.7795   -1.2071    0.6969 C   0  0  0  0  0  4           0  0  0
   -2.1537    0.0000    1.3938 C   0  0  0  0  0  4           0  0  0
   -0.6258    0.0000    1.3938 C   0  0  0  0  0  4           0  0  0
    0.0000   -0.0000    0.0000 C   0  0  0  0  0  4           0  0  0
    1.5279   -0.0000   -0.0000 C   0  0  0  0  0  4           0  0  0
    2.1537    0.0000   -1.3938 C   0  0  0  0  0  4           0  0  0
    3.6815    0.0000   -1.3938 C   0  0  0  0  0  4           0  0  0
    4.3073    0.0000   -2.7876 C   0  0  0  0  0  4           0  0  0
    5.8352    0.0000   -2.7876 C   0  0  0  0  0  4           0  0  0
    6.4610    0.0000   -4.1814 C   0  0  0  0  0  4           0  0  0
    7.9889    0.0000   -4.1814 C   0  0  0  0  0  4           0  0  0
    8.6147    0.0000   -5.5752 C   0  0  0  0  0  4           0  0  0
   10.1337    0.0000   -5.5054 C   0  0  0  0  0  4           0  0  0
  1  6  2  0     0  0
  2  7  2  0     0  0
  3  6  1  0     0  0
  3  9  1  0     0  0
  4  8  1  0     0  0
  5 10  1  0     0  0
  6 11  1  0     0  0
  7 11  1  0     0  0
  7 12  1  0     0  0
  8  9  1  0     0  0
  8 11  2  0     0  0
  9 10  1  0     0  0
 12 13  1  0     0  0
 13 14  1  0     0  0
 14 15  1  0     0  0
 15 16  1  0     0  0
 16 17  1  0     0  0
 17 18  1  0     0  0
 18 19  1  0     0  0
 19 20  1  0     0  0
 20 21  1  0     0  0
 21 22  1  0     0  0
 22 23  1  0     0  0
 23 24  1  0     0  0
 24 25  1  0     0  0
M  END
> <standard_type>
IC50

> <# Confs.>
25

> <canonical_smiles>
OC([C@@H](CO)O1)=C(C(CCCCCCCCCCCCCC)=O)C1=O

> <standard_relation>
=

> <predicted_activity_value>
4.494850021680094

> <actual_activity_value>
4.7447274948966935

> <Compound>
16

> <publication_ID>
nan

> <standard_units>
nM

> hash
16781839770707237844

$$$$
16_
XXILIB    08252103493D 0   0.00000     0.00000

 25 25  0     1  0            999 V2000
    0.6230   -4.9427    5.5419 O   0  0  0  0  0  2           0  0  0
   -1.8673   -1.4814    6.2469 O   0  0  0  0  0  2           0  0  0
    0.0486   -5.4565    7.7023 O   0  0  0  0  0  2           0  0  0
   -2.0961   -2.8003    8.7545 O   0  0  0  0  0  2           0  0  0
   -2.6573   -6.1769    7.9490 O   0  0  0  0  0  2           0  0  0
    0.0242   -4.6868    6.5725 C   0  0  0  0  0  4           0  0  0
   -1.1258   -2.3915    5.8783 C   0  0  0  0  0  4           0  0  0
   -1.2817   -3.6448    8.0563 C   0  0  0  0  0  4           0  0  0
   -0.7819   -4.8705    8.7158 C   0  0  1  0  0  4           0  0  0
   -1.8686   -5.8654    9.0940 C   0  0  0  0  0  4           0  0  0
   -0.8287   -3.5090    6.8089 C   0  0  0  0  0  4           0  0  0
   -0.4928   -2.4142    4.5003 C   0  0  0  0  0  4           0  0  0
   -0.8722   -1.2071    3.6440 C   0  0  0  0  0  4           0  0  0
   -0.2464   -1.2071    2.2502 C   0  0  0  0  0  4           0  0  0
   -0.6258   -0.0000    1.3938 C   0  0  0  0  0  4           0  0  0
   -0.0000    0.0000    0.0000 C   0  0  0  0  0  4           0  0  0
    1.5279   -0.0000   -0.0000 C   0  0  0  0  0  4           0  0  0
    2.1537    0.0000   -1.3938 C   0  0  0  0  0  4           0  0  0
    3.6815    0.0000   -1.3938 C   0  0  0  0  0  4           0  0  0
    4.3073    0.0000   -2.7876 C   0  0  0  0  0  4           0  0  0
    5.8352    0.0000   -2.7876 C   0  0  0  0  0  4           0  0  0
    6.4610    0.0000   -4.1814 C   0  0  0  0  0  4           0  0  0
    7.9889    0.0000   -4.1814 C   0  0  0  0  0  4           0  0  0
    8.6147    0.0000   -5.5752 C   0  0  0  0  0  4           0  0  0
   10.1337    0.0000   -5.5054 C   0  0  0  0  0  4           0  0  0
  1  6  2  0     0  0
  2  7  2  0     0  0
  3  6  1  0     0  0
  3  9  1  0     0  0
  4  8  1  0     0  0
  5 10  1  0     0  0
  6 11  1  0     0  0
  7 11  1  0     0  0
  7 12  1  0     0  0
  8  9  1  0     0  0
  8 11  2  0     0  0
  9 10  1  0     0  0
 12 13  1  0     0  0
 13 14  1  0     0  0
 14 15  1  0     0  0
 15 16  1  0     0  0
 16 17  1  0     0  0
 17 18  1  0     0  0
 18 19  1  0     0  0
 19 20  1  0     0  0
 20 21  1  0     0  0
 21 22  1  0     0  0
 22 23  1  0     0  0
 23 24  1  0     0  0
 24 25  1  0     0  0
M  END
> <standard_type>
IC50

> <# Confs.>
25

> <canonical_smiles>
OC([C@@H](CO)O1)=C(C(CCCCCCCCCCCCCC)=O)C1=O

> <standard_relation>
=

> <predicted_activity_value>
4.494850021680094

> <actual_activity_value>
4.7447274948966935

> <Compound>
16

> <publication_ID>
nan

> <standard_units>
nM

> hash
16781839770707237844

$$$$
16_
XXILIB    08252103493D 0   0.00000     0.00000

 25 25  0     1  0            999 V2000
   -7.1659    0.0133    2.0447 O   0  0  0  0  0  2           0  0  0
   -4.2081    0.0000    5.1960 O   0  0  0  0  0  2           0  0  0
   -8.6401   -0.0423    3.8012 O   0  0  0  0  0  2           0  0  0
   -6.5987   -0.0493    6.7329 O   0  0  0  0  0  2           0  0  0
   -8.6755    2.3682    5.2468 O   0  0  0  0  0  2           0  0  0
   -7.3927   -0.0072    3.2424 C   0  0  0  0  0  4           0  0  0
   -4.9046    0.0000    4.1816 C   0  0  0  0  0  4           0  0  0
   -7.0768   -0.0228    5.4543 C   0  0  0  0  0  4           0  0  0
   -8.5390   -0.0387    5.2329 C   0  0  1  0  0  4           0  0  0
   -9.2671    1.1831    5.7721 C   0  0  0  0  0  4           0  0  0
   -6.3828   -0.0061    4.3151 C   0  0  0  0  0  4           0  0  0
   -4.3073    0.0000    2.7876 C   0  0  0  0  0  4           0  0  0
   -2.7795    0.0000    2.7876 C   0  0  0  0  0  4           0  0  0
   -2.1537   -0.0000    1.3938 C   0  0  0  0  0  4           0  0  0
   -0.6258    0.0000    1.3938 C   0  0  0  0  0  4           0  0  0
    0.0000    0.0000    0.0000 C   0  0  0  0  0  4           0  0  0
    1.5279    0.0000   -0.0000 C   0  0  0  0  0  4           0  0  0
    2.1537    1.2071    0.6969 C   0  0  0  0  0  4           0  0  0
    3.6815    1.2071    0.6969 C   0  0  0  0  0  4           0  0  0
    4.3073    2.4141    1.3938 C   0  0  0  0  0  4           0  0  0
    5.8352    2.4141    1.3938 C   0  0  0  0  0  4           0  0  0
    6.4610    3.6212    2.0907 C   0  0  0  0  0  4           0  0  0
    7.9889    3.6212    2.0907 C   0  0  0  0  0  4           0  0  0
    8.6147    4.8283    2.7876 C   0  0  0  0  0  4           0  0  0
   10.1337    4.7678    2.7527 C   0  0  0  0  0  4           0  0  0
  1  6  2  0     0  0
  2  7  2  0     0  0
  3  6  1  0     0  0
  3  9  1  0     0  0
  4  8  1  0     0  0
  5 10  1  0     0  0
  6 11  1  0     0  0
  7 11  1  0     0  0
  7 12  1  0     0  0
  8  9  1  0     0  0
  8 11  2  0     0  0
  9 10  1  0     0  0
 12 13  1  0     0  0
 13 14  1  0     0  0
 14 15  1  0     0  0
 15 16  1  0     0  0
 16 17  1  0     0  0
 17 18  1  0     0  0
 18 19  1  0     0  0
 19 20  1  0     0  0
 20 21  1  0     0  0
 21 22  1  0     0  0
 22 23  1  0     0  0
 23 24  1  0     0  0
 24 25  1  0     0  0
M  END
> <standard_type>
IC50

> <# Confs.>
25

> <canonical_smiles>
OC([C@@H](CO)O1)=C(C(CCCCCCCCCCCCCC)=O)C1=O

> <standard_relation>
=

> <predicted_activity_value>
4.494850021680094

> <actual_activity_value>
4.7447274948966935

> <Compound>
16

> <publication_ID>
nan

> <standard_units>
nM

> hash
16781839770707237844

$$$$
16_
XXILIB    08252103493D 0   0.00000     0.00000

 25 25  0     1  0            999 V2000
   -7.1659    0.0133    2.0447 O   0  0  0  0  0  2           0  0  0
   -4.2081    0.0000    5.1960 O   0  0  0  0  0  2           0  0  0
   -8.6401   -0.0423    3.8012 O   0  0  0  0  0  2           0  0  0
   -6.5987   -0.0493    6.7329 O   0  0  0  0  0  2           0  0  0
   -8.6755    2.3682    5.2468 O   0  0  0  0  0  2           0  0  0
   -7.3927   -0.0072    3.2424 C   0  0  0  0  0  4           0  0  0
   -4.9046    0.0000    4.1816 C   0  0  0  0  0  4           0  0  0
   -7.0768   -0.0228    5.4543 C   0  0  0  0  0  4           0  0  0
   -8.5390   -0.0387    5.2329 C   0  0  1  0  0  4           0  0  0
   -9.2671    1.1831    5.7721 C   0  0  0  0  0  4           0  0  0
   -6.3828   -0.0061    4.3151 C   0  0  0  0  0  4           0  0  0
   -4.3073    0.0000    2.7876 C   0  0  0  0  0  4           0  0  0
   -2.7795    0.0000    2.7876 C   0  0  0  0  0  4           0  0  0
   -2.1537   -0.0000    1.3938 C   0  0  0  0  0  4           0  0  0
   -0.6258    0.0000    1.3938 C   0  0  0  0  0  4           0  0  0
    0.0000    0.0000    0.0000 C   0  0  0  0  0  4           0  0  0
    1.5279    0.0000    0.0000 C   0  0  0  0  0  4           0  0  0
    2.1537    0.0000   -1.3938 C   0  0  0  0  0  4           0  0  0
    1.7743   -1.2071   -2.2502 C   0  0  0  0  0  4           0  0  0
    2.4001   -1.2071   -3.6440 C   0  0  0  0  0  4           0  0  0
    2.0206   -2.4141   -4.5003 C   0  0  0  0  0  4           0  0  0
    2.6464   -2.4141   -5.8941 C   0  0  0  0  0  4           0  0  0
    2.2670   -3.6212   -6.7505 C   0  0  0  0  0  4           0  0  0
    2.8928   -3.6212   -8.1443 C   0  0  0  0  0  4           0  0  0
    2.4764   -4.8461   -8.9434 C   0  0  0  0  0  4           0  0  0
  1  6  2  0     0  0
  2  7  2  0     0  0
  3  6  1  0     0  0
  3  9  1  0     0  0
  4  8  1  0     0  0
  5 10  1  0     0  0
  6 11  1  0     0  0
  7 11  1  0     0  0
  7 12  1  0     0  0
  8  9  1  0     0  0
  8 11  2  0     0  0
  9 10  1  0     0  0
 12 13  1  0     0  0
 13 14  1  0     0  0
 14 15  1  0     0  0
 15 16  1  0     0  0
 16 17  1  0     0  0
 17 18  1  0     0  0
 18 19  1  0     0  0
 19 20  1  0     0  0
 20 21  1  0     0  0
 21 22  1  0     0  0
 22 23  1  0     0  0
 23 24  1  0     0  0
 24 25  1  0     0  0
M  END
> <standard_type>
IC50

> <# Confs.>
25

> <canonical_smiles>
OC([C@@H](CO)O1)=C(C(CCCCCCCCCCCCCC)=O)C1=O

> <standard_relation>
=

> <predicted_activity_value>
4.494850021680094

> <actual_activity_value>
4.7447274948966935

> <Compound>
16

> <publication_ID>
nan

> <standard_units>
nM

> hash
16781839770707237844

$$$$
16_
XXILIB    08252103493D 0   0.00000     0.00000

 25 25  0     1  0            999 V2000
   -7.1659    0.0133    2.0447 O   0  0  0  0  0  2           0  0  0
   -4.2081    0.0000    5.1960 O   0  0  0  0  0  2           0  0  0
   -8.6401   -0.0423    3.8012 O   0  0  0  0  0  2           0  0  0
   -6.5987   -0.0493    6.7329 O   0  0  0  0  0  2           0  0  0
   -8.6755    2.3682    5.2468 O   0  0  0  0  0  2           0  0  0
   -7.3927   -0.0072    3.2424 C   0  0  0  0  0  4           0  0  0
   -4.9046    0.0000    4.1816 C   0  0  0  0  0  4           0  0  0
   -7.0768   -0.0228    5.4543 C   0  0  0  0  0  4           0  0  0
   -8.5390   -0.0387    5.2329 C   0  0  1  0  0  4           0  0  0
   -9.2671    1.1831    5.7721 C   0  0  0  0  0  4           0  0  0
   -6.3828   -0.0061    4.3151 C   0  0  0  0  0  4           0  0  0
   -4.3073    0.0000    2.7876 C   0  0  0  0  0  4           0  0  0
   -2.7795    0.0000    2.7876 C   0  0  0  0  0  4           0  0  0
   -2.1537   -0.0000    1.3938 C   0  0  0  0  0  4           0  0  0
   -0.6258    0.0000    1.3938 C   0  0  0  0  0  4           0  0  0
    0.0000    0.0000    0.0000 C   0  0  0  0  0  4           0  0  0
    1.5279    0.0000   -0.0000 C   0  0  0  0  0  4           0  0  0
    2.1537    0.0000   -1.3938 C   0  0  0  0  0  4           0  0  0
    3.6815    0.0000   -1.3938 C   0  0  0  0  0  4           0  0  0
    4.3073    1.2071   -0.6969 C   0  0  0  0  0  4           0  0  0
    5.8352    1.2071   -0.6969 C   0  0  0  0  0  4           0  0  0
    6.4610    2.4141   -0.0000 C   0  0  0  0  0  4           0  0  0
    7.9889    2.4141   -0.0000 C   0  0  0  0  0  4           0  0  0
    8.6147    3.6212    0.6969 C   0  0  0  0  0  4           0  0  0
   10.1337    3.5607    0.6620 C   0  0  0  0  0  4           0  0  0
  1  6  2  0     0  0
  2  7  2  0     0  0
  3  6  1  0     0  0
  3  9  1  0     0  0
  4  8  1  0     0  0
  5 10  1  0     0  0
  6 11  1  0     0  0
  7 11  1  0     0  0
  7 12  1  0     0  0
  8  9  1  0     0  0
  8 11  2  0     0  0
  9 10  1  0     0  0
 12 13  1  0     0  0
 13 14  1  0     0  0
 14 15  1  0     0  0
 15 16  1  0     0  0
 16 17  1  0     0  0
 17 18  1  0     0  0
 18 19  1  0     0  0
 19 20  1  0     0  0
 20 21  1  0     0  0
 21 22  1  0     0  0
 22 23  1  0     0  0
 23 24  1  0     0  0
 24 25  1  0     0  0
M  END
> <standard_type>
IC50

> <# Confs.>
25

> <canonical_smiles>
OC([C@@H](CO)O1)=C(C(CCCCCCCCCCCCCC)=O)C1=O

> <standard_relation>
=

> <predicted_activity_value>
4.494850021680094

> <actual_activity_value>
4.7447274948966935

> <Compound>
16

> <publication_ID>
nan

> <standard_units>
nM

> hash
16781839770707237844

$$$$
16_
XXILIB    08252103493D 0   0.00000     0.00000

 25 25  0     1  0            999 V2000
   -7.1659    0.0133    2.0447 O   0  0  0  0  0  2           0  0  0
   -4.2081    0.0000    5.1960 O   0  0  0  0  0  2           0  0  0
   -8.6401   -0.0423    3.8012 O   0  0  0  0  0  2           0  0  0
   -6.5987   -0.0493    6.7329 O   0  0  0  0  0  2           0  0  0
   -8.6755    2.3682    5.2468 O   0  0  0  0  0  2           0  0  0
   -7.3927   -0.0072    3.2424 C   0  0  0  0  0  4           0  0  0
   -4.9046    0.0000    4.1816 C   0  0  0  0  0  4           0  0  0
   -7.0768   -0.0228    5.4543 C   0  0  0  0  0  4           0  0  0
   -8.5390   -0.0387    5.2329 C   0  0  1  0  0  4           0  0  0
   -9.2671    1.1831    5.7721 C   0  0  0  0  0  4           0  0  0
   -6.3828   -0.0061    4.3151 C   0  0  0  0  0  4           0  0  0
   -4.3073    0.0000    2.7876 C   0  0  0  0  0  4           0  0  0
   -2.7795    0.0000    2.7876 C   0  0  0  0  0  4           0  0  0
   -2.1537   -0.0000    1.3938 C   0  0  0  0  0  4           0  0  0
   -0.6258    0.0000    1.3938 C   0  0  0  0  0  4           0  0  0
    0.0000    0.0000    0.0000 C   0  0  0  0  0  4           0  0  0
    1.5279   -0.0000    0.0000 C   0  0  0  0  0  4           0  0  0
    2.1537    0.0000   -1.3938 C   0  0  0  0  0  4           0  0  0
    3.6815   -0.0000   -1.3938 C   0  0  0  0  0  4           0  0  0
    4.3073    0.0000   -2.7876 C   0  0  0  0  0  4           0  0  0
    3.9279   -1.2071   -3.6440 C   0  0  0  0  0  4           0  0  0
    4.5537   -1.2071   -5.0378 C   0  0  0  0  0  4           0  0  0
    4.1743   -2.4141   -5.8941 C   0  0  0  0  0  4           0  0  0
    4.8001   -2.4141   -7.2879 C   0  0  0  0  0  4           0  0  0
    4.3837   -3.6390   -8.0871 C   0  0  0  0  0  4           0  0  0
  1  6  2  0     0  0
  2  7  2  0     0  0
  3  6  1  0     0  0
  3  9  1  0     0  0
  4  8  1  0     0  0
  5 10  1  0     0  0
  6 11  1  0     0  0
  7 11  1  0     0  0
  7 12  1  0     0  0
  8  9  1  0     0  0
  8 11  2  0     0  0
  9 10  1  0     0  0
 12 13  1  0     0  0
 13 14  1  0     0  0
 14 15  1  0     0  0
 15 16  1  0     0  0
 16 17  1  0     0  0
 17 18  1  0     0  0
 18 19  1  0     0  0
 19 20  1  0     0  0
 20 21  1  0     0  0
 21 22  1  0     0  0
 22 23  1  0     0  0
 23 24  1  0     0  0
 24 25  1  0     0  0
M  END
> <standard_type>
IC50

> <# Confs.>
25

> <canonical_smiles>
OC([C@@H](CO)O1)=C(C(CCCCCCCCCCCCCC)=O)C1=O

> <standard_relation>
=

> <predicted_activity_value>
4.494850021680094

> <actual_activity_value>
4.7447274948966935

> <Compound>
16

> <publication_ID>
nan

> <standard_units>
nM

> hash
16781839770707237844

$$$$
16_
XXILIB    08252103493D 0   0.00000     0.00000

 25 25  0     1  0            999 V2000
    0.6441    4.9294    5.5513 O   0  0  0  0  0  2           0  0  0
   -1.8673    1.4814    6.2469 O   0  0  0  0  0  2           0  0  0
   -0.0183    5.4989    7.6723 O   0  0  0  0  0  2           0  0  0
   -2.1740    2.8496    8.7196 O   0  0  0  0  0  2           0  0  0
    1.0846    3.8088    9.6291 O   0  0  0  0  0  2           0  0  0
    0.0129    4.6940    6.5674 C   0  0  0  0  0  4           0  0  0
   -1.1258    2.3915    5.8783 C   0  0  0  0  0  4           0  0  0
   -1.3177    3.6676    8.0401 C   0  0  0  0  0  4           0  0  0
   -0.8431    4.9093    8.6883 C   0  0  1  0  0  4           0  0  0
    0.0008    4.6823    9.9333 C   0  0  0  0  0  4           0  0  0
   -0.8383    3.5151    6.8046 C   0  0  0  0  0  4           0  0  0
   -0.4928    2.4142    4.5003 C   0  0  0  0  0  4           0  0  0
   -0.8722    1.2071    3.6440 C   0  0  0  0  0  4           0  0  0
   -0.2464    1.2071    2.2502 C   0  0  0  0  0  4           0  0  0
   -0.6258    0.0000    1.3938 C   0  0  0  0  0  4           0  0  0
    0.0000   -0.0000    0.0000 C   0  0  0  0  0  4           0  0  0
    1.5279   -0.0000   -0.0000 C   0  0  0  0  0  4           0  0  0
    2.1537    0.0000   -1.3938 C   0  0  0  0  0  4           0  0  0
    3.6815    0.0000   -1.3938 C   0  0  0  0  0  4           0  0  0
    4.3073    0.0000   -2.7876 C   0  0  0  0  0  4           0  0  0
    5.8352    0.0000   -2.7876 C   0  0  0  0  0  4           0  0  0
    6.4610    0.0000   -4.1814 C   0  0  0  0  0  4           0  0  0
    7.9889    0.0000   -4.1814 C   0  0  0  0  0  4           0  0  0
    8.6147    0.0000   -5.5752 C   0  0  0  0  0  4           0  0  0
   10.1337    0.0000   -5.5054 C   0  0  0  0  0  4           0  0  0
  1  6  2  0     0  0
  2  7  2  0     0  0
  3  6  1  0     0  0
  3  9  1  0     0  0
  4  8  1  0     0  0
  5 10  1  0     0  0
  6 11  1  0     0  0
  7 11  1  0     0  0
  7 12  1  0     0  0
  8  9  1  0     0  0
  8 11  2  0     0  0
  9 10  1  0     0  0
 12 13  1  0     0  0
 13 14  1  0     0  0
 14 15  1  0     0  0
 15 16  1  0     0  0
 16 17  1  0     0  0
 17 18  1  0     0  0
 18 19  1  0     0  0
 19 20  1  0     0  0
 20 21  1  0     0  0
 21 22  1  0     0  0
 22 23  1  0     0  0
 23 24  1  0     0  0
 24 25  1  0     0  0
M  END
> <standard_type>
IC50

> <# Confs.>
25

> <canonical_smiles>
OC([C@@H](CO)O1)=C(C(CCCCCCCCCCCCCC)=O)C1=O

> <standard_relation>
=

> <predicted_activity_value>
4.494850021680094

> <actual_activity_value>
4.7447274948966935

> <Compound>
16

> <publication_ID>
nan

> <standard_units>
nM

> hash
16781839770707237844

$$$$
16_
XXILIB    08252103493D 0   0.00000     0.00000

 25 25  0     1  0            999 V2000
   -7.1659    0.0133    2.0447 O   0  0  0  0  0  2           0  0  0
   -4.2081    0.0000    5.1960 O   0  0  0  0  0  2           0  0  0
   -8.6401   -0.0423    3.8012 O   0  0  0  0  0  2           0  0  0
   -6.5987   -0.0493    6.7329 O   0  0  0  0  0  2           0  0  0
   -8.6755    2.3682    5.2468 O   0  0  0  0  0  2           0  0  0
   -7.3927   -0.0072    3.2424 C   0  0  0  0  0  4           0  0  0
   -4.9046    0.0000    4.1816 C   0  0  0  0  0  4           0  0  0
   -7.0768   -0.0228    5.4543 C   0  0  0  0  0  4           0  0  0
   -8.5390   -0.0387    5.2329 C   0  0  1  0  0  4           0  0  0
   -9.2671    1.1831    5.7721 C   0  0  0  0  0  4           0  0  0
   -6.3828   -0.0061    4.3151 C   0  0  0  0  0  4           0  0  0
   -4.3073    0.0000    2.7876 C   0  0  0  0  0  4           0  0  0
   -2.7795    0.0000    2.7876 C   0  0  0  0  0  4           0  0  0
   -2.1537   -0.0000    1.3938 C   0  0  0  0  0  4           0  0  0
   -0.6258    0.0000    1.3938 C   0  0  0  0  0  4           0  0  0
    0.0000    0.0000    0.0000 C   0  0  0  0  0  4           0  0  0
    1.5279    0.0000    0.0000 C   0  0  0  0  0  4           0  0  0
    2.1537    0.0000   -1.3938 C   0  0  0  0  0  4           0  0  0
    3.6815   -0.0000   -1.3938 C   0  0  0  0  0  4           0  0  0
    4.3073    0.0000   -2.7876 C   0  0  0  0  0  4           0  0  0
    5.8352    0.0000   -2.7876 C   0  0  0  0  0  4           0  0  0
    6.4610    1.2071   -2.0907 C   0  0  0  0  0  4           0  0  0
    7.9889    1.2071   -2.0907 C   0  0  0  0  0  4           0  0  0
    8.6147    2.4141   -1.3938 C   0  0  0  0  0  4           0  0  0
   10.1337    2.3536   -1.4287 C   0  0  0  0  0  4           0  0  0
  1  6  2  0     0  0
  2  7  2  0     0  0
  3  6  1  0     0  0
  3  9  1  0     0  0
  4  8  1  0     0  0
  5 10  1  0     0  0
  6 11  1  0     0  0
  7 11  1  0     0  0
  7 12  1  0     0  0
  8  9  1  0     0  0
  8 11  2  0     0  0
  9 10  1  0     0  0
 12 13  1  0     0  0
 13 14  1  0     0  0
 14 15  1  0     0  0
 15 16  1  0     0  0
 16 17  1  0     0  0
 17 18  1  0     0  0
 18 19  1  0     0  0
 19 20  1  0     0  0
 20 21  1  0     0  0
 21 22  1  0     0  0
 22 23  1  0     0  0
 23 24  1  0     0  0
 24 25  1  0     0  0
M  END
> <standard_type>
IC50

> <# Confs.>
25

> <canonical_smiles>
OC([C@@H](CO)O1)=C(C(CCCCCCCCCCCCCC)=O)C1=O

> <standard_relation>
=

> <predicted_activity_value>
4.494850021680094

> <actual_activity_value>
4.7447274948966935

> <Compound>
16

> <publication_ID>
nan

> <standard_units>
nM

> hash
16781839770707237844

$$$$
16_
XXILIB    08252103493D 0   0.00000     0.00000

 25 25  0     1  0            999 V2000
   -7.1659    0.0133    2.0447 O   0  0  0  0  0  2           0  0  0
   -4.2081    0.0000    5.1960 O   0  0  0  0  0  2           0  0  0
   -8.6401   -0.0423    3.8012 O   0  0  0  0  0  2           0  0  0
   -6.5987   -0.0493    6.7329 O   0  0  0  0  0  2           0  0  0
   -8.6755    2.3682    5.2468 O   0  0  0  0  0  2           0  0  0
   -7.3927   -0.0072    3.2424 C   0  0  0  0  0  4           0  0  0
   -4.9046    0.0000    4.1816 C   0  0  0  0  0  4           0  0  0
   -7.0768   -0.0228    5.4543 C   0  0  0  0  0  4           0  0  0
   -8.5390   -0.0387    5.2329 C   0  0  1  0  0  4           0  0  0
   -9.2671    1.1831    5.7721 C   0  0  0  0  0  4           0  0  0
   -6.3828   -0.0061    4.3151 C   0  0  0  0  0  4           0  0  0
   -4.3073    0.0000    2.7876 C   0  0  0  0  0  4           0  0  0
   -2.7795    0.0000    2.7876 C   0  0  0  0  0  4           0  0  0
   -2.1537   -0.0000    1.3938 C   0  0  0  0  0  4           0  0  0
   -0.6258    0.0000    1.3938 C   0  0  0  0  0  4           0  0  0
    0.0000    0.0000    0.0000 C   0  0  0  0  0  4           0  0  0
    1.5279   -0.0000   -0.0000 C   0  0  0  0  0  4           0  0  0
    2.1537    0.0000   -1.3938 C   0  0  0  0  0  4           0  0  0
    3.6815    0.0000   -1.3938 C   0  0  0  0  0  4           0  0  0
    4.3073    0.0000   -2.7876 C   0  0  0  0  0  4           0  0  0
    5.8352    0.0000   -2.7876 C   0  0  0  0  0  4           0  0  0
    6.4610    0.0000   -4.1814 C   0  0  0  0  0  4           0  0  0
    6.0816   -1.2071   -5.0378 C   0  0  0  0  0  4           0  0  0
    6.7074   -1.2071   -6.4316 C   0  0  0  0  0  4           0  0  0
    6.2910   -2.4320   -7.2307 C   0  0  0  0  0  4           0  0  0
  1  6  2  0     0  0
  2  7  2  0     0  0
  3  6  1  0     0  0
  3  9  1  0     0  0
  4  8  1  0     0  0
  5 10  1  0     0  0
  6 11  1  0     0  0
  7 11  1  0     0  0
  7 12  1  0     0  0
  8  9  1  0     0  0
  8 11  2  0     0  0
  9 10  1  0     0  0
 12 13  1  0     0  0
 13 14  1  0     0  0
 14 15  1  0     0  0
 15 16  1  0     0  0
 16 17  1  0     0  0
 17 18  1  0     0  0
 18 19  1  0     0  0
 19 20  1  0     0  0
 20 21  1  0     0  0
 21 22  1  0     0  0
 22 23  1  0     0  0
 23 24  1  0     0  0
 24 25  1  0     0  0
M  END
> <standard_type>
IC50

> <# Confs.>
25

> <canonical_smiles>
OC([C@@H](CO)O1)=C(C(CCCCCCCCCCCCCC)=O)C1=O

> <standard_relation>
=

> <predicted_activity_value>
4.494850021680094

> <actual_activity_value>
4.7447274948966935

> <Compound>
16

> <publication_ID>
nan

> <standard_units>
nM

> hash
16781839770707237844

$$$$
16_
XXILIB    08252103493D 0   0.00000     0.00000

 25 25  0     1  0            999 V2000
   -7.1659    0.0133    2.0447 O   0  0  0  0  0  2           0  0  0
   -4.2081    0.0000    5.1960 O   0  0  0  0  0  2           0  0  0
   -8.6401   -0.0423    3.8012 O   0  0  0  0  0  2           0  0  0
   -6.5987   -0.0493    6.7329 O   0  0  0  0  0  2           0  0  0
   -8.6755    2.3682    5.2468 O   0  0  0  0  0  2           0  0  0
   -7.3927   -0.0072    3.2424 C   0  0  0  0  0  4           0  0  0
   -4.9046    0.0000    4.1816 C   0  0  0  0  0  4           0  0  0
   -7.0768   -0.0228    5.4543 C   0  0  0  0  0  4           0  0  0
   -8.5390   -0.0387    5.2329 C   0  0  1  0  0  4           0  0  0
   -9.2671    1.1831    5.7721 C   0  0  0  0  0  4           0  0  0
   -6.3828   -0.0061    4.3151 C   0  0  0  0  0  4           0  0  0
   -4.3073    0.0000    2.7876 C   0  0  0  0  0  4           0  0  0
   -2.7795    0.0000    2.7876 C   0  0  0  0  0  4           0  0  0
   -2.1537   -0.0000    1.3938 C   0  0  0  0  0  4           0  0  0
   -0.6258    0.0000    1.3938 C   0  0  0  0  0  4           0  0  0
    0.0000    0.0000    0.0000 C   0  0  0  0  0  4           0  0  0
    1.5279    0.0000    0.0000 C   0  0  0  0  0  4           0  0  0
    2.1537   -1.2071    0.6969 C   0  0  0  0  0  4           0  0  0
    3.6815   -1.2071    0.6969 C   0  0  0  0  0  4           0  0  0
    4.3073   -2.4141    1.3938 C   0  0  0  0  0  4           0  0  0
    5.8352   -2.4141    1.3938 C   0  0  0  0  0  4           0  0  0
    6.4610   -3.6212    2.0907 C   0  0  0  0  0  4           0  0  0
    7.9889   -3.6212    2.0907 C   0  0  0  0  0  4           0  0  0
    8.6147   -4.8283    2.7876 C   0  0  0  0  0  4           0  0  0
   10.1337   -4.7678    2.7527 C   0  0  0  0  0  4           0  0  0
  1  6  2  0     0  0
  2  7  2  0     0  0
  3  6  1  0     0  0
  3  9  1  0     0  0
  4  8  1  0     0  0
  5 10  1  0     0  0
  6 11  1  0     0  0
  7 11  1  0     0  0
  7 12  1  0     0  0
  8  9  1  0     0  0
  8 11  2  0     0  0
  9 10  1  0     0  0
 12 13  1  0     0  0
 13 14  1  0     0  0
 14 15  1  0     0  0
 15 16  1  0     0  0
 16 17  1  0     0  0
 17 18  1  0     0  0
 18 19  1  0     0  0
 19 20  1  0     0  0
 20 21  1  0     0  0
 21 22  1  0     0  0
 22 23  1  0     0  0
 23 24  1  0     0  0
 24 25  1  0     0  0
M  END
> <standard_type>
IC50

> <# Confs.>
25

> <canonical_smiles>
OC([C@@H](CO)O1)=C(C(CCCCCCCCCCCCCC)=O)C1=O

> <standard_relation>
=

> <predicted_activity_value>
4.494850021680094

> <actual_activity_value>
4.7447274948966935

> <Compound>
16

> <publication_ID>
nan

> <standard_units>
nM

> hash
16781839770707237844

$$$$
16_
XXILIB    08252103493D 0   0.00000     0.00000

 25 25  0     1  0            999 V2000
   -7.1659    0.0133    2.0447 O   0  0  0  0  0  2           0  0  0
   -4.2081    0.0000    5.1960 O   0  0  0  0  0  2           0  0  0
   -8.6401   -0.0423    3.8012 O   0  0  0  0  0  2           0  0  0
   -6.5987   -0.0493    6.7329 O   0  0  0  0  0  2           0  0  0
   -8.6755    2.3682    5.2468 O   0  0  0  0  0  2           0  0  0
   -7.3927   -0.0072    3.2424 C   0  0  0  0  0  4           0  0  0
   -4.9046    0.0000    4.1816 C   0  0  0  0  0  4           0  0  0
   -7.0768   -0.0228    5.4543 C   0  0  0  0  0  4           0  0  0
   -8.5390   -0.0387    5.2329 C   0  0  1  0  0  4           0  0  0
   -9.2671    1.1831    5.7721 C   0  0  0  0  0  4           0  0  0
   -6.3828   -0.0061    4.3151 C   0  0  0  0  0  4           0  0  0
   -4.3073    0.0000    2.7876 C   0  0  0  0  0  4           0  0  0
   -2.7795    0.0000    2.7876 C   0  0  0  0  0  4           0  0  0
   -2.1537   -0.0000    1.3938 C   0  0  0  0  0  4           0  0  0
   -0.6258    0.0000    1.3938 C   0  0  0  0  0  4           0  0  0
    0.0000    0.0000    0.0000 C   0  0  0  0  0  4           0  0  0
    1.5279   -0.0000   -0.0000 C   0  0  0  0  0  4           0  0  0
    2.1537   -0.0000   -1.3938 C   0  0  0  0  0  4           0  0  0
    1.7743    1.2071   -2.2502 C   0  0  0  0  0  4           0  0  0
    2.4001    1.2071   -3.6440 C   0  0  0  0  0  4           0  0  0
    2.0206    2.4141   -4.5003 C   0  0  0  0  0  4           0  0  0
    2.6464    2.4141   -5.8941 C   0  0  0  0  0  4           0  0  0
    2.2670    3.6212   -6.7505 C   0  0  0  0  0  4           0  0  0
    2.8928    3.6212   -8.1443 C   0  0  0  0  0  4           0  0  0
    2.4764    4.8461   -8.9434 C   0  0  0  0  0  4           0  0  0
  1  6  2  0     0  0
  2  7  2  0     0  0
  3  6  1  0     0  0
  3  9  1  0     0  0
  4  8  1  0     0  0
  5 10  1  0     0  0
  6 11  1  0     0  0
  7 11  1  0     0  0
  7 12  1  0     0  0
  8  9  1  0     0  0
  8 11  2  0     0  0
  9 10  1  0     0  0
 12 13  1  0     0  0
 13 14  1  0     0  0
 14 15  1  0     0  0
 15 16  1  0     0  0
 16 17  1  0     0  0
 17 18  1  0     0  0
 18 19  1  0     0  0
 19 20  1  0     0  0
 20 21  1  0     0  0
 21 22  1  0     0  0
 22 23  1  0     0  0
 23 24  1  0     0  0
 24 25  1  0     0  0
M  END
> <standard_type>
IC50

> <# Confs.>
25

> <canonical_smiles>
OC([C@@H](CO)O1)=C(C(CCCCCCCCCCCCCC)=O)C1=O

> <standard_relation>
=

> <predicted_activity_value>
4.494850021680094

> <actual_activity_value>
4.7447274948966935

> <Compound>
16

> <publication_ID>
nan

> <standard_units>
nM

> hash
16781839770707237844

$$$$
16_
XXILIB    08252103493D 0   0.00000     0.00000

 25 25  0     1  0            999 V2000
   -7.1659    0.0133    2.0447 O   0  0  0  0  0  2           0  0  0
   -4.2081    0.0000    5.1960 O   0  0  0  0  0  2           0  0  0
   -8.6401   -0.0423    3.8012 O   0  0  0  0  0  2           0  0  0
   -6.5987   -0.0493    6.7329 O   0  0  0  0  0  2           0  0  0
   -8.6755    2.3682    5.2468 O   0  0  0  0  0  2           0  0  0
   -7.3927   -0.0072    3.2424 C   0  0  0  0  0  4           0  0  0
   -4.9046    0.0000    4.1816 C   0  0  0  0  0  4           0  0  0
   -7.0768   -0.0228    5.4543 C   0  0  0  0  0  4           0  0  0
   -8.5390   -0.0387    5.2329 C   0  0  1  0  0  4           0  0  0
   -9.2671    1.1831    5.7721 C   0  0  0  0  0  4           0  0  0
   -6.3828   -0.0061    4.3151 C   0  0  0  0  0  4           0  0  0
   -4.3073    0.0000    2.7876 C   0  0  0  0  0  4           0  0  0
   -2.7795    0.0000    2.7876 C   0  0  0  0  0  4           0  0  0
   -2.1537   -0.0000    1.3938 C   0  0  0  0  0  4           0  0  0
   -0.6258    0.0000    1.3938 C   0  0  0  0  0  4           0  0  0
    0.0000    0.0000    0.0000 C   0  0  0  0  0  4           0  0  0
    1.5279    0.0000    0.0000 C   0  0  0  0  0  4           0  0  0
    2.1537    0.0000   -1.3938 C   0  0  0  0  0  4           0  0  0
    3.6815    0.0000   -1.3938 C   0  0  0  0  0  4           0  0  0
    4.3073   -1.2071   -0.6969 C   0  0  0  0  0  4           0  0  0
    5.8352   -1.2071   -0.6969 C   0  0  0  0  0  4           0  0  0
    6.4610   -2.4141   -0.0000 C   0  0  0  0  0  4           0  0  0
    7.9889   -2.4141    0.0000 C   0  0  0  0  0  4           0  0  0
    8.6147   -3.6212    0.6969 C   0  0  0  0  0  4           0  0  0
   10.1337   -3.5607    0.6620 C   0  0  0  0  0  4           0  0  0
  1  6  2  0     0  0
  2  7  2  0     0  0
  3  6  1  0     0  0
  3  9  1  0     0  0
  4  8  1  0     0  0
  5 10  1  0     0  0
  6 11  1  0     0  0
  7 11  1  0     0  0
  7 12  1  0     0  0
  8  9  1  0     0  0
  8 11  2  0     0  0
  9 10  1  0     0  0
 12 13  1  0     0  0
 13 14  1  0     0  0
 14 15  1  0     0  0
 15 16  1  0     0  0
 16 17  1  0     0  0
 17 18  1  0     0  0
 18 19  1  0     0  0
 19 20  1  0     0  0
 20 21  1  0     0  0
 21 22  1  0     0  0
 22 23  1  0     0  0
 23 24  1  0     0  0
 24 25  1  0     0  0
M  END
> <standard_type>
IC50

> <# Confs.>
25

> <canonical_smiles>
OC([C@@H](CO)O1)=C(C(CCCCCCCCCCCCCC)=O)C1=O

> <standard_relation>
=

> <predicted_activity_value>
4.494850021680094

> <actual_activity_value>
4.7447274948966935

> <Compound>
16

> <publication_ID>
nan

> <standard_units>
nM

> hash
16781839770707237844

$$$$
16_
XXILIB    08252103493D 0   0.00000     0.00000

 25 25  0     1  0            999 V2000
   -7.1659    0.0133    2.0447 O   0  0  0  0  0  2           0  0  0
   -4.2081    0.0000    5.1960 O   0  0  0  0  0  2           0  0  0
   -8.6401   -0.0423    3.8012 O   0  0  0  0  0  2           0  0  0
   -6.5987   -0.0493    6.7329 O   0  0  0  0  0  2           0  0  0
   -8.6755    2.3682    5.2468 O   0  0  0  0  0  2           0  0  0
   -7.3927   -0.0072    3.2424 C   0  0  0  0  0  4           0  0  0
   -4.9046    0.0000    4.1816 C   0  0  0  0  0  4           0  0  0
   -7.0768   -0.0228    5.4543 C   0  0  0  0  0  4           0  0  0
   -8.5390   -0.0387    5.2329 C   0  0  1  0  0  4           0  0  0
   -9.2671    1.1831    5.7721 C   0  0  0  0  0  4           0  0  0
   -6.3828   -0.0061    4.3151 C   0  0  0  0  0  4           0  0  0
   -4.3073    0.0000    2.7876 C   0  0  0  0  0  4           0  0  0
   -2.7795    0.0000    2.7876 C   0  0  0  0  0  4           0  0  0
   -2.1537   -0.0000    1.3938 C   0  0  0  0  0  4           0  0  0
   -0.6258    0.0000    1.3938 C   0  0  0  0  0  4           0  0  0
    0.0000    0.0000    0.0000 C   0  0  0  0  0  4           0  0  0
    1.5279    0.0000    0.0000 C   0  0  0  0  0  4           0  0  0
    2.1537    0.0000   -1.3938 C   0  0  0  0  0  4           0  0  0
    3.6815   -0.0000   -1.3938 C   0  0  0  0  0  4           0  0  0
    4.3073    0.0000   -2.7876 C   0  0  0  0  0  4           0  0  0
    3.9279    1.2071   -3.6440 C   0  0  0  0  0  4           0  0  0
    4.5537    1.2071   -5.0378 C   0  0  0  0  0  4           0  0  0
    4.1743    2.4141   -5.8941 C   0  0  0  0  0  4           0  0  0
    4.8001    2.4141   -7.2879 C   0  0  0  0  0  4           0  0  0
    4.3837    3.6390   -8.0871 C   0  0  0  0  0  4           0  0  0
  1  6  2  0     0  0
  2  7  2  0     0  0
  3  6  1  0     0  0
  3  9  1  0     0  0
  4  8  1  0     0  0
  5 10  1  0     0  0
  6 11  1  0     0  0
  7 11  1  0     0  0
  7 12  1  0     0  0
  8  9  1  0     0  0
  8 11  2  0     0  0
  9 10  1  0     0  0
 12 13  1  0     0  0
 13 14  1  0     0  0
 14 15  1  0     0  0
 15 16  1  0     0  0
 16 17  1  0     0  0
 17 18  1  0     0  0
 18 19  1  0     0  0
 19 20  1  0     0  0
 20 21  1  0     0  0
 21 22  1  0     0  0
 22 23  1  0     0  0
 23 24  1  0     0  0
 24 25  1  0     0  0
M  END
> <standard_type>
IC50

> <# Confs.>
25

> <canonical_smiles>
OC([C@@H](CO)O1)=C(C(CCCCCCCCCCCCCC)=O)C1=O

> <standard_relation>
=

> <predicted_activity_value>
4.494850021680094

> <actual_activity_value>
4.7447274948966935

> <Compound>
16

> <publication_ID>
nan

> <standard_units>
nM

> hash
16781839770707237844

$$$$
16_
XXILIB    08252103493D 0   0.00000     0.00000

 25 25  0     1  0            999 V2000
   -7.1659    0.0133    2.0447 O   0  0  0  0  0  2           0  0  0
   -4.2081    0.0000    5.1960 O   0  0  0  0  0  2           0  0  0
   -8.6401   -0.0423    3.8012 O   0  0  0  0  0  2           0  0  0
   -6.5987   -0.0493    6.7329 O   0  0  0  0  0  2           0  0  0
   -8.6755    2.3682    5.2468 O   0  0  0  0  0  2           0  0  0
   -7.3927   -0.0072    3.2424 C   0  0  0  0  0  4           0  0  0
   -4.9046    0.0000    4.1816 C   0  0  0  0  0  4           0  0  0
   -7.0768   -0.0228    5.4543 C   0  0  0  0  0  4           0  0  0
   -8.5390   -0.0387    5.2329 C   0  0  1  0  0  4           0  0  0
   -9.2671    1.1831    5.7721 C   0  0  0  0  0  4           0  0  0
   -6.3828   -0.0061    4.3151 C   0  0  0  0  0  4           0  0  0
   -4.3073    0.0000    2.7876 C   0  0  0  0  0  4           0  0  0
   -2.7795    0.0000    2.7876 C   0  0  0  0  0  4           0  0  0
   -2.1537   -0.0000    1.3938 C   0  0  0  0  0  4           0  0  0
   -0.6258    0.0000    1.3938 C   0  0  0  0  0  4           0  0  0
    0.0000    0.0000    0.0000 C   0  0  0  0  0  4           0  0  0
    1.5279    0.0000    0.0000 C   0  0  0  0  0  4           0  0  0
    2.1537    0.0000   -1.3938 C   0  0  0  0  0  4           0  0  0
    3.6815   -0.0000   -1.3938 C   0  0  0  0  0  4           0  0  0
    4.3073    0.0000   -2.7876 C   0  0  0  0  0  4           0  0  0
    5.8352    0.0000   -2.7876 C   0  0  0  0  0  4           0  0  0
    6.4610   -1.2071   -2.0907 C   0  0  0  0  0  4           0  0  0
    7.9889   -1.2071   -2.0907 C   0  0  0  0  0  4           0  0  0
    8.6147   -2.4141   -1.3938 C   0  0  0  0  0  4           0  0  0
   10.1337   -2.3536   -1.4287 C   0  0  0  0  0  4           0  0  0
  1  6  2  0     0  0
  2  7  2  0     0  0
  3  6  1  0     0  0
  3  9  1  0     0  0
  4  8  1  0     0  0
  5 10  1  0     0  0
  6 11  1  0     0  0
  7 11  1  0     0  0
  7 12  1  0     0  0
  8  9  1  0     0  0
  8 11  2  0     0  0
  9 10  1  0     0  0
 12 13  1  0     0  0
 13 14  1  0     0  0
 14 15  1  0     0  0
 15 16  1  0     0  0
 16 17  1  0     0  0
 17 18  1  0     0  0
 18 19  1  0     0  0
 19 20  1  0     0  0
 20 21  1  0     0  0
 21 22  1  0     0  0
 22 23  1  0     0  0
 23 24  1  0     0  0
 24 25  1  0     0  0
M  END
> <standard_type>
IC50

> <# Confs.>
25

> <canonical_smiles>
OC([C@@H](CO)O1)=C(C(CCCCCCCCCCCCCC)=O)C1=O

> <standard_relation>
=

> <predicted_activity_value>
4.494850021680094

> <actual_activity_value>
4.7447274948966935

> <Compound>
16

> <publication_ID>
nan

> <standard_units>
nM

> hash
16781839770707237844

$$$$
16_
XXILIB    08252103493D 0   0.00000     0.00000

 25 25  0     1  0            999 V2000
   -7.1659    0.0133    2.0447 O   0  0  0  0  0  2           0  0  0
   -4.2081    0.0000    5.1960 O   0  0  0  0  0  2           0  0  0
   -8.6401   -0.0423    3.8012 O   0  0  0  0  0  2           0  0  0
   -6.5987   -0.0493    6.7329 O   0  0  0  0  0  2           0  0  0
   -8.6755    2.3682    5.2468 O   0  0  0  0  0  2           0  0  0
   -7.3927   -0.0072    3.2424 C   0  0  0  0  0  4           0  0  0
   -4.9046    0.0000    4.1816 C   0  0  0  0  0  4           0  0  0
   -7.0768   -0.0228    5.4543 C   0  0  0  0  0  4           0  0  0
   -8.5390   -0.0387    5.2329 C   0  0  1  0  0  4           0  0  0
   -9.2671    1.1831    5.7721 C   0  0  0  0  0  4           0  0  0
   -6.3828   -0.0061    4.3151 C   0  0  0  0  0  4           0  0  0
   -4.3073    0.0000    2.7876 C   0  0  0  0  0  4           0  0  0
   -2.7795    0.0000    2.7876 C   0  0  0  0  0  4           0  0  0
   -2.1537   -0.0000    1.3938 C   0  0  0  0  0  4           0  0  0
   -0.6258    0.0000    1.3938 C   0  0  0  0  0  4           0  0  0
    0.0000    0.0000    0.0000 C   0  0  0  0  0  4           0  0  0
    1.5279   -0.0000   -0.0000 C   0  0  0  0  0  4           0  0  0
    2.1537    0.0000   -1.3938 C   0  0  0  0  0  4           0  0  0
    3.6815    0.0000   -1.3938 C   0  0  0  0  0  4           0  0  0
    4.3073    0.0000   -2.7876 C   0  0  0  0  0  4           0  0  0
    5.8352    0.0000   -2.7876 C   0  0  0  0  0  4           0  0  0
    6.4610    0.0000   -4.1814 C   0  0  0  0  0  4           0  0  0
    6.0816    1.2071   -5.0378 C   0  0  0  0  0  4           0  0  0
    6.7074    1.2071   -6.4316 C   0  0  0  0  0  4           0  0  0
    6.2910    2.4320   -7.2307 C   0  0  0  0  0  4           0  0  0
  1  6  2  0     0  0
  2  7  2  0     0  0
  3  6  1  0     0  0
  3  9  1  0     0  0
  4  8  1  0     0  0
  5 10  1  0     0  0
  6 11  1  0     0  0
  7 11  1  0     0  0
  7 12  1  0     0  0
  8  9  1  0     0  0
  8 11  2  0     0  0
  9 10  1  0     0  0
 12 13  1  0     0  0
 13 14  1  0     0  0
 14 15  1  0     0  0
 15 16  1  0     0  0
 16 17  1  0     0  0
 17 18  1  0     0  0
 18 19  1  0     0  0
 19 20  1  0     0  0
 20 21  1  0     0  0
 21 22  1  0     0  0
 22 23  1  0     0  0
 23 24  1  0     0  0
 24 25  1  0     0  0
M  END
> <standard_type>
IC50

> <# Confs.>
25

> <canonical_smiles>
OC([C@@H](CO)O1)=C(C(CCCCCCCCCCCCCC)=O)C1=O

> <standard_relation>
=

> <predicted_activity_value>
4.494850021680094

> <actual_activity_value>
4.7447274948966935

> <Compound>
16

> <publication_ID>
nan

> <standard_units>
nM

> hash
16781839770707237844

$$$$
16_
XXILIB    08252103493D 0   0.00000     0.00000

 25 25  0     1  0            999 V2000
    0.6441    4.9294    5.5513 O   0  0  0  0  0  2           0  0  0
   -1.8673    1.4814    6.2469 O   0  0  0  0  0  2           0  0  0
   -0.0183    5.4989    7.6723 O   0  0  0  0  0  2           0  0  0
   -2.1740    2.8496    8.7196 O   0  0  0  0  0  2           0  0  0
    1.0846    3.8088    9.6291 O   0  0  0  0  0  2           0  0  0
    0.0129    4.6940    6.5674 C   0  0  0  0  0  4           0  0  0
   -1.1258    2.3915    5.8783 C   0  0  0  0  0  4           0  0  0
   -1.3177    3.6676    8.0401 C   0  0  0  0  0  4           0  0  0
   -0.8431    4.9093    8.6883 C   0  0  1  0  0  4           0  0  0
    0.0008    4.6823    9.9333 C   0  0  0  0  0  4           0  0  0
   -0.8383    3.5151    6.8046 C   0  0  0  0  0  4           0  0  0
   -0.4928    2.4142    4.5003 C   0  0  0  0  0  4           0  0  0
   -0.8722    1.2071    3.6440 C   0  0  0  0  0  4           0  0  0
   -0.2464    1.2071    2.2502 C   0  0  0  0  0  4           0  0  0
   -0.6258    0.0000    1.3938 C   0  0  0  0  0  4           0  0  0
    0.0000   -0.0000    0.0000 C   0  0  0  0  0  4           0  0  0
    1.5279   -0.0000    0.0000 C   0  0  0  0  0  4           0  0  0
    2.1537   -1.2071    0.6969 C   0  0  0  0  0  4           0  0  0
    3.6815   -1.2071    0.6969 C   0  0  0  0  0  4           0  0  0
    4.3073    0.0000    1.3938 C   0  0  0  0  0  4           0  0  0
    3.9279    0.1381    2.8673 C   0  0  0  0  0  4           0  0  0
    4.5537    1.3452    3.5642 C   0  0  0  0  0  4           0  0  0
    4.1743    1.4833    5.0378 C   0  0  0  0  0  4           0  0  0
    4.8001    2.6903    5.7347 C   0  0  0  0  0  4           0  0  0
    4.3837    2.7699    7.1950 C   0  0  0  0  0  4           0  0  0
  1  6  2  0     0  0
  2  7  2  0     0  0
  3  6  1  0     0  0
  3  9  1  0     0  0
  4  8  1  0     0  0
  5 10  1  0     0  0
  6 11  1  0     0  0
  7 11  1  0     0  0
  7 12  1  0     0  0
  8  9  1  0     0  0
  8 11  2  0     0  0
  9 10  1  0     0  0
 12 13  1  0     0  0
 13 14  1  0     0  0
 14 15  1  0     0  0
 15 16  1  0     0  0
 16 17  1  0     0  0
 17 18  1  0     0  0
 18 19  1  0     0  0
 19 20  1  0     0  0
 20 21  1  0     0  0
 21 22  1  0     0  0
 22 23  1  0     0  0
 23 24  1  0     0  0
 24 25  1  0     0  0
M  END
> <standard_type>
IC50

> <# Confs.>
25

> <canonical_smiles>
OC([C@@H](CO)O1)=C(C(CCCCCCCCCCCCCC)=O)C1=O

> <standard_relation>
=

> <predicted_activity_value>
4.494850021680094

> <actual_activity_value>
4.7447274948966935

> <Compound>
16

> <publication_ID>
nan

> <standard_units>
nM

> hash
16781839770707237844

$$$$
16_
XXILIB    08252103493D 0   0.00000     0.00000

 25 25  0     1  0            999 V2000
    0.7472   -5.5650    4.6097 O   0  0  0  0  0  2           0  0  0
   -1.2721   -5.1509    0.8110 O   0  0  0  0  0  2           0  0  0
    0.3547   -7.7986    4.2654 O   0  0  0  0  0  2           0  0  0
   -1.3426   -7.9749    1.1269 O   0  0  0  0  0  2           0  0  0
    1.9018   -8.8469    2.1656 O   0  0  0  0  0  2           0  0  0
    0.3016   -6.4740    3.9305 C   0  0  0  0  0  4           0  0  0
   -0.6893   -5.0820    1.8925 C   0  0  0  0  0  4           0  0  0
   -0.6841   -7.5737    2.2536 C   0  0  0  0  0  4           0  0  0
   -0.2456   -8.5928    3.2315 C   0  0  1  0  0  4           0  0  0
    0.7931   -9.5671    2.6970 C   0  0  0  0  0  4           0  0  0
   -0.3816   -6.3310    2.6330 C   0  0  0  0  0  4           0  0  0
   -0.2746   -3.7593    2.5076 C   0  0  0  0  0  4           0  0  0
   -0.6540   -2.5522    1.6512 C   0  0  0  0  0  4           0  0  0
   -0.2464   -1.2071    2.2502 C   0  0  0  0  0  4           0  0  0
   -0.6258   -0.0000    1.3938 C   0  0  0  0  0  4           0  0  0
    0.0000    0.0000   -0.0000 C   0  0  0  0  0  4           0  0  0
    1.5279    0.0000   -0.0000 C   0  0  0  0  0  4           0  0  0
    2.1537    0.0000   -1.3938 C   0  0  0  0  0  4           0  0  0
    1.7743   -1.2071   -2.2502 C   0  0  0  0  0  4           0  0  0
    2.1819   -2.5522   -1.6512 C   0  0  0  0  0  4           0  0  0
    1.8024   -3.7593   -2.5076 C   0  0  0  0  0  4           0  0  0
    2.2101   -5.1045   -1.9087 C   0  0  0  0  0  4           0  0  0
    1.8306   -6.3115   -2.7650 C   0  0  0  0  0  4           0  0  0
    2.2382   -7.6567   -2.1661 C   0  0  0  0  0  4           0  0  0
    1.8328   -8.8142   -3.0651 C   0  0  0  0  0  4           0  0  0
  1  6  2  0     0  0
  2  7  2  0     0  0
  3  6  1  0     0  0
  3  9  1  0     0  0
  4  8  1  0     0  0
  5 10  1  0     0  0
  6 11  1  0     0  0
  7 11  1  0     0  0
  7 12  1  0     0  0
  8  9  1  0     0  0
  8 11  2  0     0  0
  9 10  1  0     0  0
 12 13  1  0     0  0
 13 14  1  0     0  0
 14 15  1  0     0  0
 15 16  1  0     0  0
 16 17  1  0     0  0
 17 18  1  0     0  0
 18 19  1  0     0  0
 19 20  1  0     0  0
 20 21  1  0     0  0
 21 22  1  0     0  0
 22 23  1  0     0  0
 23 24  1  0     0  0
 24 25  1  0     0  0
M  END
> <standard_type>
IC50

> <# Confs.>
25

> <canonical_smiles>
OC([C@@H](CO)O1)=C(C(CCCCCCCCCCCCCC)=O)C1=O

> <standard_relation>
=

> <predicted_activity_value>
4.494850021680094

> <actual_activity_value>
4.7447274948966935

> <Compound>
16

> <publication_ID>
nan

> <standard_units>
nM

> hash
16781839770707237844

$$$$
16_
XXILIB    08252103493D 0   0.00000     0.00000

 25 25  0     1  0            999 V2000
   -7.1659    0.0133    2.0447 O   0  0  0  0  0  2           0  0  0
   -4.2081    0.0000    5.1960 O   0  0  0  0  0  2           0  0  0
   -8.6401   -0.0423    3.8012 O   0  0  0  0  0  2           0  0  0
   -6.5987   -0.0493    6.7329 O   0  0  0  0  0  2           0  0  0
   -8.6755    2.3682    5.2468 O   0  0  0  0  0  2           0  0  0
   -7.3927   -0.0072    3.2424 C   0  0  0  0  0  4           0  0  0
   -4.9046    0.0000    4.1816 C   0  0  0  0  0  4           0  0  0
   -7.0768   -0.0228    5.4543 C   0  0  0  0  0  4           0  0  0
   -8.5390   -0.0387    5.2329 C   0  0  1  0  0  4           0  0  0
   -9.2671    1.1831    5.7721 C   0  0  0  0  0  4           0  0  0
   -6.3828   -0.0061    4.3151 C   0  0  0  0  0  4           0  0  0
   -4.3073    0.0000    2.7876 C   0  0  0  0  0  4           0  0  0
   -2.7795    0.0000    2.7876 C   0  0  0  0  0  4           0  0  0
   -2.1537   -0.0000    1.3938 C   0  0  0  0  0  4           0  0  0
   -0.6258    0.0000    1.3938 C   0  0  0  0  0  4           0  0  0
    0.0000    0.0000    0.0000 C   0  0  0  0  0  4           0  0  0
    1.5279   -0.0000   -0.0000 C   0  0  0  0  0  4           0  0  0
    2.1537    0.0000   -1.3938 C   0  0  0  0  0  4           0  0  0
    3.6815    0.0000   -1.3938 C   0  0  0  0  0  4           0  0  0
    4.3073    0.0000   -2.7876 C   0  0  0  0  0  4           0  0  0
    5.8352    0.0000   -2.7876 C   0  0  0  0  0  4           0  0  0
    6.4610    0.0000   -4.1814 C   0  0  0  0  0  4           0  0  0
    6.0816    1.2071   -5.0378 C   0  0  0  0  0  4           0  0  0
    6.4892    2.5522   -4.4388 C   0  0  0  0  0  4           0  0  0
    6.0837    3.7097   -5.3379 C   0  0  0  0  0  4           0  0  0
  1  6  2  0     0  0
  2  7  2  0     0  0
  3  6  1  0     0  0
  3  9  1  0     0  0
  4  8  1  0     0  0
  5 10  1  0     0  0
  6 11  1  0     0  0
  7 11  1  0     0  0
  7 12  1  0     0  0
  8  9  1  0     0  0
  8 11  2  0     0  0
  9 10  1  0     0  0
 12 13  1  0     0  0
 13 14  1  0     0  0
 14 15  1  0     0  0
 15 16  1  0     0  0
 16 17  1  0     0  0
 17 18  1  0     0  0
 18 19  1  0     0  0
 19 20  1  0     0  0
 20 21  1  0     0  0
 21 22  1  0     0  0
 22 23  1  0     0  0
 23 24  1  0     0  0
 24 25  1  0     0  0
M  END
> <standard_type>
IC50

> <# Confs.>
25

> <canonical_smiles>
OC([C@@H](CO)O1)=C(C(CCCCCCCCCCCCCC)=O)C1=O

> <standard_relation>
=

> <predicted_activity_value>
4.494850021680094

> <actual_activity_value>
4.7447274948966935

> <Compound>
16

> <publication_ID>
nan

> <standard_units>
nM

> hash
16781839770707237844

$$$$
16_
XXILIB    08252103493D 0   0.00000     0.00000

 25 25  0     1  0            999 V2000
    0.7472   -5.5650    4.6097 O   0  0  0  0  0  2           0  0  0
   -1.2721   -5.1509    0.8110 O   0  0  0  0  0  2           0  0  0
    0.3547   -7.7986    4.2654 O   0  0  0  0  0  2           0  0  0
   -1.3426   -7.9749    1.1269 O   0  0  0  0  0  2           0  0  0
    1.9018   -8.8469    2.1656 O   0  0  0  0  0  2           0  0  0
    0.3016   -6.4740    3.9305 C   0  0  0  0  0  4           0  0  0
   -0.6893   -5.0820    1.8925 C   0  0  0  0  0  4           0  0  0
   -0.6841   -7.5737    2.2536 C   0  0  0  0  0  4           0  0  0
   -0.2456   -8.5928    3.2315 C   0  0  1  0  0  4           0  0  0
    0.7931   -9.5671    2.6970 C   0  0  0  0  0  4           0  0  0
   -0.3816   -6.3310    2.6330 C   0  0  0  0  0  4           0  0  0
   -0.2746   -3.7593    2.5076 C   0  0  0  0  0  4           0  0  0
   -0.6540   -2.5522    1.6512 C   0  0  0  0  0  4           0  0  0
   -0.2464   -1.2071    2.2502 C   0  0  0  0  0  4           0  0  0
   -0.6258   -0.0000    1.3938 C   0  0  0  0  0  4           0  0  0
    0.0000    0.0000   -0.0000 C   0  0  0  0  0  4           0  0  0
    1.5279   -0.0000   -0.0000 C   0  0  0  0  0  4           0  0  0
    2.1537    0.0000   -1.3938 C   0  0  0  0  0  4           0  0  0
    3.6815    0.0000   -1.3938 C   0  0  0  0  0  4           0  0  0
    4.3073    0.0000   -2.7876 C   0  0  0  0  0  4           0  0  0
    5.8352    0.0000   -2.7876 C   0  0  0  0  0  4           0  0  0
    6.4610    0.0000   -4.1814 C   0  0  0  0  0  4           0  0  0
    7.9889    0.0000   -4.1814 C   0  0  0  0  0  4           0  0  0
    8.6147    0.0000   -5.5752 C   0  0  0  0  0  4           0  0  0
   10.1337    0.0000   -5.5054 C   0  0  0  0  0  4           0  0  0
  1  6  2  0     0  0
  2  7  2  0     0  0
  3  6  1  0     0  0
  3  9  1  0     0  0
  4  8  1  0     0  0
  5 10  1  0     0  0
  6 11  1  0     0  0
  7 11  1  0     0  0
  7 12  1  0     0  0
  8  9  1  0     0  0
  8 11  2  0     0  0
  9 10  1  0     0  0
 12 13  1  0     0  0
 13 14  1  0     0  0
 14 15  1  0     0  0
 15 16  1  0     0  0
 16 17  1  0     0  0
 17 18  1  0     0  0
 18 19  1  0     0  0
 19 20  1  0     0  0
 20 21  1  0     0  0
 21 22  1  0     0  0
 22 23  1  0     0  0
 23 24  1  0     0  0
 24 25  1  0     0  0
M  END
> <standard_type>
IC50

> <# Confs.>
25

> <canonical_smiles>
OC([C@@H](CO)O1)=C(C(CCCCCCCCCCCCCC)=O)C1=O

> <standard_relation>
=

> <predicted_activity_value>
4.494850021680094

> <actual_activity_value>
4.7447274948966935

> <Compound>
16

> <publication_ID>
nan

> <standard_units>
nM

> hash
16781839770707237844

$$$$
17_
XXILIB    08252103493D 0   0.00000     0.00000

 35 35  0     1  0            999 V2000
    8.5297   -2.5479   -5.3986 O   0  0  0  0  0  2           0  0  0
   -8.4026    3.3712    3.6926 O   0  0  0  0  0  2           0  0  0
  -11.1218    0.5296    5.3199 O   0  0  0  0  0  2           0  0  0
    9.1948   -3.2559   -3.3172 O   0  0  0  0  0  2           0  0  0
  -10.2581    4.5266    2.9933 O   0  0  0  0  0  2           0  0  0
   -8.9405    1.1732    4.9482 O   0  0  0  0  0  2           0  0  0
  -13.0371    2.5803    4.1058 O   0  0  0  0  0  2           0  0  0
  -11.6778    5.6319    5.1272 O   0  0  0  0  0  2           0  0  0
    8.4194   -1.1626   -3.5481 N   0  0  0  0  0  3           0  0  0
    8.6990   -2.3425   -4.2006 C   0  0  0  0  0  4           0  0  0
   -9.6133    3.4930    3.6110 C   0  0  0  0  0  4           0  0  0
  -10.2877    1.3035    4.8730 C   0  0  0  0  0  4           0  0  0
  -11.7931    3.0773    3.8437 C   0  0  0  0  0  4           0  0  0
  -11.6777    4.3530    3.1028 C   0  0  1  0  0  4           0  0  0
    9.5284   -4.5343   -3.8739 C   0  0  0  0  0  4           0  0  0
   -8.4711   -0.0000    5.6256 C   0  0  0  0  0  4           0  0  0
  -12.2636    5.5519    3.8312 C   0  0  0  0  0  4           0  0  0
    7.8798    0.0000   -4.2193 C   0  0  0  0  0  4           0  0  0
  -10.6079    2.5489    4.1561 C   0  0  0  0  0  4           0  0  0
   10.0514   -5.4022   -2.7765 C   0  0  0  0  0  4           0  0  0
   11.2759   -5.9408   -2.7670 C   0  0  0  0  0  4           0  0  0
   -6.9496   -0.0000    5.6256 C   0  0  0  0  0  4           0  0  0
    6.3569    0.0000   -4.2193 C   0  0  0  0  0  4           0  0  0
   -6.3569   -0.0000    4.2193 C   0  0  0  0  0  4           0  0  0
    5.7642    0.0000   -2.8129 C   0  0  0  0  0  4           0  0  0
   -4.8307   -0.0000    4.2193 C   0  0  0  0  0  4           0  0  0
    4.2380    0.0000   -2.8129 C   0  0  0  0  0  4           0  0  0
   -4.2380   -0.0000    2.8129 C   0  0  0  0  0  4           0  0  0
    3.6452    0.0000   -1.4064 C   0  0  0  0  0  4           0  0  0
   -2.7117   -0.0000    2.8129 C   0  0  0  0  0  4           0  0  0
    2.1190    0.0000   -1.4064 C   0  0  0  0  0  4           0  0  0
   -2.1190   -0.0000    1.4064 C   0  0  0  0  0  4           0  0  0
    1.5262    0.0000    0.0000 C   0  0  0  0  0  4           0  0  0
   -0.5927    0.0000    1.4064 C   0  0  0  0  0  4           0  0  0
    0.0000   -0.0000    0.0000 C   0  0  0  0  0  4           0  0  0
  1 10  2  0     0  0
  2 11  2  0     0  0
  3 12  2  0     0  0
  4 10  1  0     0  0
  4 15  1  0     0  0
  5 11  1  0     0  0
  5 14  1  0     0  0
  6 12  1  0     0  0
  6 16  1  0     0  0
  7 13  1  0     0  0
  8 17  1  0     0  0
  9 10  1  0     0  0
  9 18  1  0     0  0
 11 19  1  0     0  0
 12 19  1  0     0  0
 13 14  1  0     0  0
 13 19  2  0     0  0
 14 17  1  0     0  0
 15 20  1  0     0  0
 16 22  1  0     0  0
 18 23  1  0     0  0
 20 21  2  0     0  0
 22 24  1  0     0  0
 23 25  1  0     0  0
 24 26  1  0     0  0
 25 27  1  0     0  0
 26 28  1  0     0  0
 27 29  1  0     0  0
 28 30  1  0     0  0
 29 31  1  0     0  0
 30 32  1  0     0  0
 31 33  1  0     0  0
 32 34  1  0     0  0
 33 35  1  0     0  0
 34 35  1  0     0  0
M  END
> <standard_type>
IC50

> <# Confs.>
25

> <canonical_smiles>
OC([C@@H](CO)O1)=C(C(OCCCCCCCCCCCCCCCCNC(OCC=C)=O)=O)C1=O

> <standard_relation>
=

> <predicted_activity_value>
4.5376020021010435

> <actual_activity_value>
4.640164517660112

> <Compound>
17

> <publication_ID>
nan

> <standard_units>
nM

> hash
23367683470544921

$$$$
17_
XXILIB    08252103493D 0   0.00000     0.00000

 35 35  0     1  0            999 V2000
    8.5297   -2.5479   -5.3986 O   0  0  0  0  0  2           0  0  0
   -8.4026   -0.0116    9.5117 O   0  0  0  0  0  2           0  0  0
  -11.1218   -0.0000    6.2371 O   0  0  0  0  0  2           0  0  0
    9.1948   -3.2559   -3.3172 O   0  0  0  0  0  2           0  0  0
  -10.2581    0.0163   10.8619 O   0  0  0  0  0  2           0  0  0
   -8.9405   -0.0000    6.9803 O   0  0  0  0  0  2           0  0  0
  -13.0371    0.0260    8.6201 O   0  0  0  0  0  2           0  0  0
  -11.6778   -2.3843   10.7522 O   0  0  0  0  0  2           0  0  0
    8.4194   -1.1626   -3.5481 N   0  0  0  0  0  3           0  0  0
    8.6990   -2.3425   -4.2006 C   0  0  0  0  0  4           0  0  0
   -9.6133   -0.0018    9.6579 C   0  0  0  0  0  4           0  0  0
  -10.2877   -0.0000    7.1307 C   0  0  0  0  0  4           0  0  0
  -11.7931    0.0045    9.1816 C   0  0  0  0  0  4           0  0  0
  -11.6777    0.0084   10.6568 C   0  0  1  0  0  4           0  0  0
    9.5284   -4.5343   -3.8739 C   0  0  0  0  0  4           0  0  0
   -8.4711   -0.0000    5.6256 C   0  0  0  0  0  4           0  0  0
  -12.2636   -1.2219   11.3309 C   0  0  0  0  0  4           0  0  0
    7.8798    0.0000   -4.2193 C   0  0  0  0  0  4           0  0  0
  -10.6079   -0.0018    8.5678 C   0  0  0  0  0  4           0  0  0
   10.0514   -5.4022   -2.7765 C   0  0  0  0  0  4           0  0  0
   11.2759   -5.9408   -2.7670 C   0  0  0  0  0  4           0  0  0
   -6.9496   -0.0000    5.6256 C   0  0  0  0  0  4           0  0  0
    6.3569    0.0000   -4.2193 C   0  0  0  0  0  4           0  0  0
   -6.3569   -0.0000    4.2193 C   0  0  0  0  0  4           0  0  0
    5.7642    0.0000   -2.8129 C   0  0  0  0  0  4           0  0  0
   -4.8307   -0.0000    4.2193 C   0  0  0  0  0  4           0  0  0
    4.2380    0.0000   -2.8129 C   0  0  0  0  0  4           0  0  0
   -4.2380   -0.0000    2.8129 C   0  0  0  0  0  4           0  0  0
    3.6452    0.0000   -1.4064 C   0  0  0  0  0  4           0  0  0
   -2.7117   -0.0000    2.8129 C   0  0  0  0  0  4           0  0  0
    2.1190    0.0000   -1.4064 C   0  0  0  0  0  4           0  0  0
   -2.1190   -0.0000    1.4064 C   0  0  0  0  0  4           0  0  0
    1.5262    0.0000    0.0000 C   0  0  0  0  0  4           0  0  0
   -0.5927    0.0000    1.4064 C   0  0  0  0  0  4           0  0  0
    0.0000   -0.0000    0.0000 C   0  0  0  0  0  4           0  0  0
  1 10  2  0     0  0
  2 11  2  0     0  0
  3 12  2  0     0  0
  4 10  1  0     0  0
  4 15  1  0     0  0
  5 11  1  0     0  0
  5 14  1  0     0  0
  6 12  1  0     0  0
  6 16  1  0     0  0
  7 13  1  0     0  0
  8 17  1  0     0  0
  9 10  1  0     0  0
  9 18  1  0     0  0
 11 19  1  0     0  0
 12 19  1  0     0  0
 13 14  1  0     0  0
 13 19  2  0     0  0
 14 17  1  0     0  0
 15 20  1  0     0  0
 16 22  1  0     0  0
 18 23  1  0     0  0
 20 21  2  0     0  0
 22 24  1  0     0  0
 23 25  1  0     0  0
 24 26  1  0     0  0
 25 27  1  0     0  0
 26 28  1  0     0  0
 27 29  1  0     0  0
 28 30  1  0     0  0
 29 31  1  0     0  0
 30 32  1  0     0  0
 31 33  1  0     0  0
 32 34  1  0     0  0
 33 35  1  0     0  0
 34 35  1  0     0  0
M  END
> <standard_type>
IC50

> <# Confs.>
25

> <canonical_smiles>
OC([C@@H](CO)O1)=C(C(OCCCCCCCCCCCCCCCCNC(OCC=C)=O)=O)C1=O

> <standard_relation>
=

> <predicted_activity_value>
4.5376020021010435

> <actual_activity_value>
4.640164517660112

> <Compound>
17

> <publication_ID>
nan

> <standard_units>
nM

> hash
23367683470544921

$$$$
17_
XXILIB    08252103493D 0   0.00000     0.00000

 35 35  0     1  0            999 V2000
    8.5297   -2.5479   -5.3986 O   0  0  0  0  0  2           0  0  0
   -8.4026   -3.3597    3.6725 O   0  0  0  0  0  2           0  0  0
  -11.1218   -0.5296    5.3199 O   0  0  0  0  0  2           0  0  0
    9.1948   -3.2559   -3.3172 O   0  0  0  0  0  2           0  0  0
  -10.2581   -4.5430    3.0216 O   0  0  0  0  0  2           0  0  0
   -8.9405   -1.1732    4.9482 O   0  0  0  0  0  2           0  0  0
  -13.0371   -2.6064    4.1509 O   0  0  0  0  0  2           0  0  0
  -11.6778   -3.2476    0.9974 O   0  0  0  0  0  2           0  0  0
    8.4194   -1.1626   -3.5481 N   0  0  0  0  0  3           0  0  0
    8.6990   -2.3425   -4.2006 C   0  0  0  0  0  4           0  0  0
   -9.6133   -3.4911    3.6079 C   0  0  0  0  0  4           0  0  0
  -10.2877   -1.3035    4.8730 C   0  0  0  0  0  4           0  0  0
  -11.7931   -3.0818    3.8515 C   0  0  0  0  0  4           0  0  0
  -11.6777   -4.3613    3.1172 C   0  0  1  0  0  4           0  0  0
    9.5284   -4.5343   -3.8739 C   0  0  0  0  0  4           0  0  0
   -8.4711   -0.0000    5.6256 C   0  0  0  0  0  4           0  0  0
  -12.2636   -4.3299    1.7147 C   0  0  0  0  0  4           0  0  0
    7.8798    0.0000   -4.2193 C   0  0  0  0  0  4           0  0  0
  -10.6079   -2.5471    4.1529 C   0  0  0  0  0  4           0  0  0
   10.0514   -5.4022   -2.7765 C   0  0  0  0  0  4           0  0  0
   11.2759   -5.9408   -2.7670 C   0  0  0  0  0  4           0  0  0
   -6.9496   -0.0000    5.6256 C   0  0  0  0  0  4           0  0  0
    6.3569    0.0000   -4.2193 C   0  0  0  0  0  4           0  0  0
   -6.3569   -0.0000    4.2193 C   0  0  0  0  0  4           0  0  0
    5.7642    0.0000   -2.8129 C   0  0  0  0  0  4           0  0  0
   -4.8307   -0.0000    4.2193 C   0  0  0  0  0  4           0  0  0
    4.2380    0.0000   -2.8129 C   0  0  0  0  0  4           0  0  0
   -4.2380   -0.0000    2.8129 C   0  0  0  0  0  4           0  0  0
    3.6452    0.0000   -1.4064 C   0  0  0  0  0  4           0  0  0
   -2.7117   -0.0000    2.8129 C   0  0  0  0  0  4           0  0  0
    2.1190    0.0000   -1.4064 C   0  0  0  0  0  4           0  0  0
   -2.1190   -0.0000    1.4064 C   0  0  0  0  0  4           0  0  0
    1.5262    0.0000    0.0000 C   0  0  0  0  0  4           0  0  0
   -0.5927    0.0000    1.4064 C   0  0  0  0  0  4           0  0  0
    0.0000   -0.0000    0.0000 C   0  0  0  0  0  4           0  0  0
  1 10  2  0     0  0
  2 11  2  0     0  0
  3 12  2  0     0  0
  4 10  1  0     0  0
  4 15  1  0     0  0
  5 11  1  0     0  0
  5 14  1  0     0  0
  6 12  1  0     0  0
  6 16  1  0     0  0
  7 13  1  0     0  0
  8 17  1  0     0  0
  9 10  1  0     0  0
  9 18  1  0     0  0
 11 19  1  0     0  0
 12 19  1  0     0  0
 13 14  1  0     0  0
 13 19  2  0     0  0
 14 17  1  0     0  0
 15 20  1  0     0  0
 16 22  1  0     0  0
 18 23  1  0     0  0
 20 21  2  0     0  0
 22 24  1  0     0  0
 23 25  1  0     0  0
 24 26  1  0     0  0
 25 27  1  0     0  0
 26 28  1  0     0  0
 27 29  1  0     0  0
 28 30  1  0     0  0
 29 31  1  0     0  0
 30 32  1  0     0  0
 31 33  1  0     0  0
 32 34  1  0     0  0
 33 35  1  0     0  0
 34 35  1  0     0  0
M  END
> <standard_type>
IC50

> <# Confs.>
25

> <canonical_smiles>
OC([C@@H](CO)O1)=C(C(OCCCCCCCCCCCCCCCCNC(OCC=C)=O)=O)C1=O

> <standard_relation>
=

> <predicted_activity_value>
4.5376020021010435

> <actual_activity_value>
4.640164517660112

> <Compound>
17

> <publication_ID>
nan

> <standard_units>
nM

> hash
23367683470544921

$$$$
17_
XXILIB    08252103493D 0   0.00000     0.00000

 35 35  0     1  0            999 V2000
    8.5297    2.2952   -5.8362 O   0  0  0  0  0  2           0  0  0
   -8.4026   -0.0116    9.5117 O   0  0  0  0  0  2           0  0  0
  -11.1218   -0.0000    6.2371 O   0  0  0  0  0  2           0  0  0
    9.1948    0.8467   -7.4901 O   0  0  0  0  0  2           0  0  0
  -10.2581    0.0163   10.8619 O   0  0  0  0  0  2           0  0  0
   -8.9405   -0.0000    6.9803 O   0  0  0  0  0  2           0  0  0
  -13.0371    0.0260    8.6201 O   0  0  0  0  0  2           0  0  0
  -11.6778   -2.3843   10.7522 O   0  0  0  0  0  2           0  0  0
    8.4194    0.0000   -5.5618 N   0  0  0  0  0  3           0  0  0
    8.6990    1.1550   -6.2574 C   0  0  0  0  0  4           0  0  0
   -9.6133   -0.0018    9.6579 C   0  0  0  0  0  4           0  0  0
  -10.2877   -0.0000    7.1307 C   0  0  0  0  0  4           0  0  0
  -11.7931    0.0045    9.1816 C   0  0  0  0  0  4           0  0  0
  -11.6777    0.0084   10.6568 C   0  0  1  0  0  4           0  0  0
    9.5284    1.9680   -8.3189 C   0  0  0  0  0  4           0  0  0
   -8.4711   -0.0000    5.6256 C   0  0  0  0  0  4           0  0  0
  -12.2636   -1.2219   11.3309 C   0  0  0  0  0  4           0  0  0
    7.8798    0.0000   -4.2193 C   0  0  0  0  0  4           0  0  0
  -10.6079   -0.0018    8.5678 C   0  0  0  0  0  4           0  0  0
   10.0514    1.4515   -9.6192 C   0  0  0  0  0  4           0  0  0
   11.2759    1.7127  -10.0904 C   0  0  0  0  0  4           0  0  0
   -6.9496   -0.0000    5.6256 C   0  0  0  0  0  4           0  0  0
    6.3569    0.0000   -4.2193 C   0  0  0  0  0  4           0  0  0
   -6.3569   -0.0000    4.2193 C   0  0  0  0  0  4           0  0  0
    5.7642    0.0000   -2.8129 C   0  0  0  0  0  4           0  0  0
   -4.8307   -0.0000    4.2193 C   0  0  0  0  0  4           0  0  0
    4.2380    0.0000   -2.8129 C   0  0  0  0  0  4           0  0  0
   -4.2380   -0.0000    2.8129 C   0  0  0  0  0  4           0  0  0
    3.6452    0.0000   -1.4064 C   0  0  0  0  0  4           0  0  0
   -2.7117   -0.0000    2.8129 C   0  0  0  0  0  4           0  0  0
    2.1190    0.0000   -1.4064 C   0  0  0  0  0  4           0  0  0
   -2.1190   -0.0000    1.4064 C   0  0  0  0  0  4           0  0  0
    1.5262    0.0000    0.0000 C   0  0  0  0  0  4           0  0  0
   -0.5927    0.0000    1.4064 C   0  0  0  0  0  4           0  0  0
    0.0000   -0.0000    0.0000 C   0  0  0  0  0  4           0  0  0
  1 10  2  0     0  0
  2 11  2  0     0  0
  3 12  2  0     0  0
  4 10  1  0     0  0
  4 15  1  0     0  0
  5 11  1  0     0  0
  5 14  1  0     0  0
  6 12  1  0     0  0
  6 16  1  0     0  0
  7 13  1  0     0  0
  8 17  1  0     0  0
  9 10  1  0     0  0
  9 18  1  0     0  0
 11 19  1  0     0  0
 12 19  1  0     0  0
 13 14  1  0     0  0
 13 19  2  0     0  0
 14 17  1  0     0  0
 15 20  1  0     0  0
 16 22  1  0     0  0
 18 23  1  0     0  0
 20 21  2  0     0  0
 22 24  1  0     0  0
 23 25  1  0     0  0
 24 26  1  0     0  0
 25 27  1  0     0  0
 26 28  1  0     0  0
 27 29  1  0     0  0
 28 30  1  0     0  0
 29 31  1  0     0  0
 30 32  1  0     0  0
 31 33  1  0     0  0
 32 34  1  0     0  0
 33 35  1  0     0  0
 34 35  1  0     0  0
M  END
> <standard_type>
IC50

> <# Confs.>
25

> <canonical_smiles>
OC([C@@H](CO)O1)=C(C(OCCCCCCCCCCCCCCCCNC(OCC=C)=O)=O)C1=O

> <standard_relation>
=

> <predicted_activity_value>
4.5376020021010435

> <actual_activity_value>
4.640164517660112

> <Compound>
17

> <publication_ID>
nan

> <standard_units>
nM

> hash
23367683470544921

$$$$
17_
XXILIB    08252103493D 0   0.00000     0.00000

 35 35  0     1  0            999 V2000
    8.5297    2.5479   -5.3986 O   0  0  0  0  0  2           0  0  0
   -8.4026   -0.0116    9.5117 O   0  0  0  0  0  2           0  0  0
  -11.1218   -0.0000    6.2371 O   0  0  0  0  0  2           0  0  0
    9.1942    3.2561   -3.3171 O   0  0  0  0  0  2           0  0  0
  -10.2581    0.0163   10.8619 O   0  0  0  0  0  2           0  0  0
   -8.9405   -0.0000    6.9803 O   0  0  0  0  0  2           0  0  0
  -13.0371    0.0260    8.6201 O   0  0  0  0  0  2           0  0  0
  -11.6778   -2.3843   10.7522 O   0  0  0  0  0  2           0  0  0
    8.4194    1.1626   -3.5481 N   0  0  0  0  0  3           0  0  0
    8.6990    2.3425   -4.2006 C   0  0  0  0  0  4           0  0  0
   -9.6133   -0.0018    9.6579 C   0  0  0  0  0  4           0  0  0
  -10.2877   -0.0000    7.1307 C   0  0  0  0  0  4           0  0  0
  -11.7931    0.0045    9.1816 C   0  0  0  0  0  4           0  0  0
  -11.6777    0.0084   10.6568 C   0  0  1  0  0  4           0  0  0
    9.5270    4.5348   -3.8736 C   0  0  0  0  0  4           0  0  0
   -8.4711   -0.0000    5.6256 C   0  0  0  0  0  4           0  0  0
  -12.2636   -1.2219   11.3309 C   0  0  0  0  0  4           0  0  0
    7.8798    0.0000   -4.2193 C   0  0  0  0  0  4           0  0  0
  -10.6079   -0.0018    8.5678 C   0  0  0  0  0  4           0  0  0
   10.0494    5.4028   -2.7761 C   0  0  0  0  0  4           0  0  0
    9.4917    6.5619   -2.4085 C   0  0  0  0  0  4           0  0  0
   -6.9496   -0.0000    5.6256 C   0  0  0  0  0  4           0  0  0
    6.3569    0.0000   -4.2193 C   0  0  0  0  0  4           0  0  0
   -6.3569   -0.0000    4.2193 C   0  0  0  0  0  4           0  0  0
    5.7642    0.0000   -2.8129 C   0  0  0  0  0  4           0  0  0
   -4.8307   -0.0000    4.2193 C   0  0  0  0  0  4           0  0  0
    4.2380    0.0000   -2.8129 C   0  0  0  0  0  4           0  0  0
   -4.2380   -0.0000    2.8129 C   0  0  0  0  0  4           0  0  0
    3.6452    0.0000   -1.4064 C   0  0  0  0  0  4           0  0  0
   -2.7117   -0.0000    2.8129 C   0  0  0  0  0  4           0  0  0
    2.1190    0.0000   -1.4064 C   0  0  0  0  0  4           0  0  0
   -2.1190   -0.0000    1.4064 C   0  0  0  0  0  4           0  0  0
    1.5262    0.0000    0.0000 C   0  0  0  0  0  4           0  0  0
   -0.5927    0.0000    1.4064 C   0  0  0  0  0  4           0  0  0
    0.0000   -0.0000    0.0000 C   0  0  0  0  0  4           0  0  0
  1 10  2  0     0  0
  2 11  2  0     0  0
  3 12  2  0     0  0
  4 10  1  0     0  0
  4 15  1  0     0  0
  5 11  1  0     0  0
  5 14  1  0     0  0
  6 12  1  0     0  0
  6 16  1  0     0  0
  7 13  1  0     0  0
  8 17  1  0     0  0
  9 10  1  0     0  0
  9 18  1  0     0  0
 11 19  1  0     0  0
 12 19  1  0     0  0
 13 14  1  0     0  0
 13 19  2  0     0  0
 14 17  1  0     0  0
 15 20  1  0     0  0
 16 22  1  0     0  0
 18 23  1  0     0  0
 20 21  2  0     0  0
 22 24  1  0     0  0
 23 25  1  0     0  0
 24 26  1  0     0  0
 25 27  1  0     0  0
 26 28  1  0     0  0
 27 29  1  0     0  0
 28 30  1  0     0  0
 29 31  1  0     0  0
 30 32  1  0     0  0
 31 33  1  0     0  0
 32 34  1  0     0  0
 33 35  1  0     0  0
 34 35  1  0     0  0
M  END
> <standard_type>
IC50

> <# Confs.>
25

> <canonical_smiles>
OC([C@@H](CO)O1)=C(C(OCCCCCCCCCCCCCCCCNC(OCC=C)=O)=O)C1=O

> <standard_relation>
=

> <predicted_activity_value>
4.5376020021010435

> <actual_activity_value>
4.640164517660112

> <Compound>
17

> <publication_ID>
nan

> <standard_units>
nM

> hash
23367683470544921

$$$$
17_
XXILIB    08252103493D 0   0.00000     0.00000

 35 35  0     1  0            999 V2000
    8.5297    2.2952   -5.8362 O   0  0  0  0  0  2           0  0  0
   -8.4026    3.3712    3.6926 O   0  0  0  0  0  2           0  0  0
  -11.1218    0.5296    5.3199 O   0  0  0  0  0  2           0  0  0
    9.1948    0.8467   -7.4901 O   0  0  0  0  0  2           0  0  0
  -10.2581    4.5266    2.9933 O   0  0  0  0  0  2           0  0  0
   -8.9405    1.1732    4.9482 O   0  0  0  0  0  2           0  0  0
  -13.0371    2.5803    4.1058 O   0  0  0  0  0  2           0  0  0
  -11.6778    5.6319    5.1272 O   0  0  0  0  0  2           0  0  0
    8.4194    0.0000   -5.5618 N   0  0  0  0  0  3           0  0  0
    8.6990    1.1550   -6.2574 C   0  0  0  0  0  4           0  0  0
   -9.6133    3.4930    3.6110 C   0  0  0  0  0  4           0  0  0
  -10.2877    1.3035    4.8730 C   0  0  0  0  0  4           0  0  0
  -11.7931    3.0773    3.8437 C   0  0  0  0  0  4           0  0  0
  -11.6777    4.3530    3.1028 C   0  0  1  0  0  4           0  0  0
    9.5284    1.9680   -8.3189 C   0  0  0  0  0  4           0  0  0
   -8.4711   -0.0000    5.6256 C   0  0  0  0  0  4           0  0  0
  -12.2636    5.5519    3.8312 C   0  0  0  0  0  4           0  0  0
    7.8798    0.0000   -4.2193 C   0  0  0  0  0  4           0  0  0
  -10.6079    2.5489    4.1561 C   0  0  0  0  0  4           0  0  0
   10.0514    1.4515   -9.6192 C   0  0  0  0  0  4           0  0  0
   11.2759    1.7127  -10.0904 C   0  0  0  0  0  4           0  0  0
   -6.9496   -0.0000    5.6256 C   0  0  0  0  0  4           0  0  0
    6.3569    0.0000   -4.2193 C   0  0  0  0  0  4           0  0  0
   -6.3569   -0.0000    4.2193 C   0  0  0  0  0  4           0  0  0
    5.7642    0.0000   -2.8129 C   0  0  0  0  0  4           0  0  0
   -4.8307   -0.0000    4.2193 C   0  0  0  0  0  4           0  0  0
    4.2380    0.0000   -2.8129 C   0  0  0  0  0  4           0  0  0
   -4.2380   -0.0000    2.8129 C   0  0  0  0  0  4           0  0  0
    3.6452    0.0000   -1.4064 C   0  0  0  0  0  4           0  0  0
   -2.7117   -0.0000    2.8129 C   0  0  0  0  0  4           0  0  0
    2.1190    0.0000   -1.4064 C   0  0  0  0  0  4           0  0  0
   -2.1190   -0.0000    1.4064 C   0  0  0  0  0  4           0  0  0
    1.5262    0.0000    0.0000 C   0  0  0  0  0  4           0  0  0
   -0.5927    0.0000    1.4064 C   0  0  0  0  0  4           0  0  0
    0.0000   -0.0000    0.0000 C   0  0  0  0  0  4           0  0  0
  1 10  2  0     0  0
  2 11  2  0     0  0
  3 12  2  0     0  0
  4 10  1  0     0  0
  4 15  1  0     0  0
  5 11  1  0     0  0
  5 14  1  0     0  0
  6 12  1  0     0  0
  6 16  1  0     0  0
  7 13  1  0     0  0
  8 17  1  0     0  0
  9 10  1  0     0  0
  9 18  1  0     0  0
 11 19  1  0     0  0
 12 19  1  0     0  0
 13 14  1  0     0  0
 13 19  2  0     0  0
 14 17  1  0     0  0
 15 20  1  0     0  0
 16 22  1  0     0  0
 18 23  1  0     0  0
 20 21  2  0     0  0
 22 24  1  0     0  0
 23 25  1  0     0  0
 24 26  1  0     0  0
 25 27  1  0     0  0
 26 28  1  0     0  0
 27 29  1  0     0  0
 28 30  1  0     0  0
 29 31  1  0     0  0
 30 32  1  0     0  0
 31 33  1  0     0  0
 32 34  1  0     0  0
 33 35  1  0     0  0
 34 35  1  0     0  0
M  END
> <standard_type>
IC50

> <# Confs.>
25

> <canonical_smiles>
OC([C@@H](CO)O1)=C(C(OCCCCCCCCCCCCCCCCNC(OCC=C)=O)=O)C1=O

> <standard_relation>
=

> <predicted_activity_value>
4.5376020021010435

> <actual_activity_value>
4.640164517660112

> <Compound>
17

> <publication_ID>
nan

> <standard_units>
nM

> hash
23367683470544921

$$$$
17_
XXILIB    08252103493D 0   0.00000     0.00000

 35 35  0     1  0            999 V2000
    8.5297    2.5479   -5.3986 O   0  0  0  0  0  2           0  0  0
   -8.4026    3.3712    3.6926 O   0  0  0  0  0  2           0  0  0
  -11.1218    0.5296    5.3199 O   0  0  0  0  0  2           0  0  0
    9.1942    3.2561   -3.3171 O   0  0  0  0  0  2           0  0  0
  -10.2581    4.5266    2.9933 O   0  0  0  0  0  2           0  0  0
   -8.9405    1.1732    4.9482 O   0  0  0  0  0  2           0  0  0
  -13.0371    2.5803    4.1058 O   0  0  0  0  0  2           0  0  0
  -11.6778    5.6319    5.1272 O   0  0  0  0  0  2           0  0  0
    8.4194    1.1626   -3.5481 N   0  0  0  0  0  3           0  0  0
    8.6990    2.3425   -4.2006 C   0  0  0  0  0  4           0  0  0
   -9.6133    3.4930    3.6110 C   0  0  0  0  0  4           0  0  0
  -10.2877    1.3035    4.8730 C   0  0  0  0  0  4           0  0  0
  -11.7931    3.0773    3.8437 C   0  0  0  0  0  4           0  0  0
  -11.6777    4.3530    3.1028 C   0  0  1  0  0  4           0  0  0
    9.5270    4.5348   -3.8736 C   0  0  0  0  0  4           0  0  0
   -8.4711   -0.0000    5.6256 C   0  0  0  0  0  4           0  0  0
  -12.2636    5.5519    3.8312 C   0  0  0  0  0  4           0  0  0
    7.8798    0.0000   -4.2193 C   0  0  0  0  0  4           0  0  0
  -10.6079    2.5489    4.1561 C   0  0  0  0  0  4           0  0  0
   10.0494    5.4028   -2.7761 C   0  0  0  0  0  4           0  0  0
    9.4917    6.5619   -2.4085 C   0  0  0  0  0  4           0  0  0
   -6.9496   -0.0000    5.6256 C   0  0  0  0  0  4           0  0  0
    6.3569    0.0000   -4.2193 C   0  0  0  0  0  4           0  0  0
   -6.3569   -0.0000    4.2193 C   0  0  0  0  0  4           0  0  0
    5.7642    0.0000   -2.8129 C   0  0  0  0  0  4           0  0  0
   -4.8307   -0.0000    4.2193 C   0  0  0  0  0  4           0  0  0
    4.2380    0.0000   -2.8129 C   0  0  0  0  0  4           0  0  0
   -4.2380   -0.0000    2.8129 C   0  0  0  0  0  4           0  0  0
    3.6452    0.0000   -1.4064 C   0  0  0  0  0  4           0  0  0
   -2.7117   -0.0000    2.8129 C   0  0  0  0  0  4           0  0  0
    2.1190    0.0000   -1.4064 C   0  0  0  0  0  4           0  0  0
   -2.1190   -0.0000    1.4064 C   0  0  0  0  0  4           0  0  0
    1.5262    0.0000    0.0000 C   0  0  0  0  0  4           0  0  0
   -0.5927    0.0000    1.4064 C   0  0  0  0  0  4           0  0  0
    0.0000   -0.0000    0.0000 C   0  0  0  0  0  4           0  0  0
  1 10  2  0     0  0
  2 11  2  0     0  0
  3 12  2  0     0  0
  4 10  1  0     0  0
  4 15  1  0     0  0
  5 11  1  0     0  0
  5 14  1  0     0  0
  6 12  1  0     0  0
  6 16  1  0     0  0
  7 13  1  0     0  0
  8 17  1  0     0  0
  9 10  1  0     0  0
  9 18  1  0     0  0
 11 19  1  0     0  0
 12 19  1  0     0  0
 13 14  1  0     0  0
 13 19  2  0     0  0
 14 17  1  0     0  0
 15 20  1  0     0  0
 16 22  1  0     0  0
 18 23  1  0     0  0
 20 21  2  0     0  0
 22 24  1  0     0  0
 23 25  1  0     0  0
 24 26  1  0     0  0
 25 27  1  0     0  0
 26 28  1  0     0  0
 27 29  1  0     0  0
 28 30  1  0     0  0
 29 31  1  0     0  0
 30 32  1  0     0  0
 31 33  1  0     0  0
 32 34  1  0     0  0
 33 35  1  0     0  0
 34 35  1  0     0  0
M  END
> <standard_type>
IC50

> <# Confs.>
25

> <canonical_smiles>
OC([C@@H](CO)O1)=C(C(OCCCCCCCCCCCCCCCCNC(OCC=C)=O)=O)C1=O

> <standard_relation>
=

> <predicted_activity_value>
4.5376020021010435

> <actual_activity_value>
4.640164517660112

> <Compound>
17

> <publication_ID>
nan

> <standard_units>
nM

> hash
23367683470544921

$$$$
17_
XXILIB    08252103493D 0   0.00000     0.00000

 35 35  0     1  0            999 V2000
    8.5297    2.2952   -5.8362 O   0  0  0  0  0  2           0  0  0
   -8.4026   -3.3597    3.6725 O   0  0  0  0  0  2           0  0  0
  -11.1218   -0.5296    5.3199 O   0  0  0  0  0  2           0  0  0
    9.1948    0.8467   -7.4901 O   0  0  0  0  0  2           0  0  0
  -10.2581   -4.5430    3.0216 O   0  0  0  0  0  2           0  0  0
   -8.9405   -1.1732    4.9482 O   0  0  0  0  0  2           0  0  0
  -13.0371   -2.6064    4.1509 O   0  0  0  0  0  2           0  0  0
  -11.6778   -3.2476    0.9974 O   0  0  0  0  0  2           0  0  0
    8.4194    0.0000   -5.5618 N   0  0  0  0  0  3           0  0  0
    8.6990    1.1550   -6.2574 C   0  0  0  0  0  4           0  0  0
   -9.6133   -3.4911    3.6079 C   0  0  0  0  0  4           0  0  0
  -10.2877   -1.3035    4.8730 C   0  0  0  0  0  4           0  0  0
  -11.7931   -3.0818    3.8515 C   0  0  0  0  0  4           0  0  0
  -11.6777   -4.3613    3.1172 C   0  0  1  0  0  4           0  0  0
    9.5284    1.9680   -8.3189 C   0  0  0  0  0  4           0  0  0
   -8.4711   -0.0000    5.6256 C   0  0  0  0  0  4           0  0  0
  -12.2636   -4.3299    1.7147 C   0  0  0  0  0  4           0  0  0
    7.8798    0.0000   -4.2193 C   0  0  0  0  0  4           0  0  0
  -10.6079   -2.5471    4.1529 C   0  0  0  0  0  4           0  0  0
   10.0514    1.4515   -9.6192 C   0  0  0  0  0  4           0  0  0
   11.2759    1.7127  -10.0904 C   0  0  0  0  0  4           0  0  0
   -6.9496   -0.0000    5.6256 C   0  0  0  0  0  4           0  0  0
    6.3569    0.0000   -4.2193 C   0  0  0  0  0  4           0  0  0
   -6.3569   -0.0000    4.2193 C   0  0  0  0  0  4           0  0  0
    5.7642    0.0000   -2.8129 C   0  0  0  0  0  4           0  0  0
   -4.8307   -0.0000    4.2193 C   0  0  0  0  0  4           0  0  0
    4.2380    0.0000   -2.8129 C   0  0  0  0  0  4           0  0  0
   -4.2380   -0.0000    2.8129 C   0  0  0  0  0  4           0  0  0
    3.6452    0.0000   -1.4064 C   0  0  0  0  0  4           0  0  0
   -2.7117   -0.0000    2.8129 C   0  0  0  0  0  4           0  0  0
    2.1190    0.0000   -1.4064 C   0  0  0  0  0  4           0  0  0
   -2.1190   -0.0000    1.4064 C   0  0  0  0  0  4           0  0  0
    1.5262    0.0000    0.0000 C   0  0  0  0  0  4           0  0  0
   -0.5927    0.0000    1.4064 C   0  0  0  0  0  4           0  0  0
    0.0000   -0.0000    0.0000 C   0  0  0  0  0  4           0  0  0
  1 10  2  0     0  0
  2 11  2  0     0  0
  3 12  2  0     0  0
  4 10  1  0     0  0
  4 15  1  0     0  0
  5 11  1  0     0  0
  5 14  1  0     0  0
  6 12  1  0     0  0
  6 16  1  0     0  0
  7 13  1  0     0  0
  8 17  1  0     0  0
  9 10  1  0     0  0
  9 18  1  0     0  0
 11 19  1  0     0  0
 12 19  1  0     0  0
 13 14  1  0     0  0
 13 19  2  0     0  0
 14 17  1  0     0  0
 15 20  1  0     0  0
 16 22  1  0     0  0
 18 23  1  0     0  0
 20 21  2  0     0  0
 22 24  1  0     0  0
 23 25  1  0     0  0
 24 26  1  0     0  0
 25 27  1  0     0  0
 26 28  1  0     0  0
 27 29  1  0     0  0
 28 30  1  0     0  0
 29 31  1  0     0  0
 30 32  1  0     0  0
 31 33  1  0     0  0
 32 34  1  0     0  0
 33 35  1  0     0  0
 34 35  1  0     0  0
M  END
> <standard_type>
IC50

> <# Confs.>
25

> <canonical_smiles>
OC([C@@H](CO)O1)=C(C(OCCCCCCCCCCCCCCCCNC(OCC=C)=O)=O)C1=O

> <standard_relation>
=

> <predicted_activity_value>
4.5376020021010435

> <actual_activity_value>
4.640164517660112

> <Compound>
17

> <publication_ID>
nan

> <standard_units>
nM

> hash
23367683470544921

$$$$
17_
XXILIB    08252103493D 0   0.00000     0.00000

 35 35  0     1  0            999 V2000
    8.5297    2.5479   -5.3986 O   0  0  0  0  0  2           0  0  0
   -8.4026   -3.3597    3.6725 O   0  0  0  0  0  2           0  0  0
  -11.1218   -0.5296    5.3199 O   0  0  0  0  0  2           0  0  0
    9.1942    3.2561   -3.3171 O   0  0  0  0  0  2           0  0  0
  -10.2581   -4.5430    3.0216 O   0  0  0  0  0  2           0  0  0
   -8.9405   -1.1732    4.9482 O   0  0  0  0  0  2           0  0  0
  -13.0371   -2.6064    4.1509 O   0  0  0  0  0  2           0  0  0
  -11.6778   -3.2476    0.9974 O   0  0  0  0  0  2           0  0  0
    8.4194    1.1626   -3.5481 N   0  0  0  0  0  3           0  0  0
    8.6990    2.3425   -4.2006 C   0  0  0  0  0  4           0  0  0
   -9.6133   -3.4911    3.6079 C   0  0  0  0  0  4           0  0  0
  -10.2877   -1.3035    4.8730 C   0  0  0  0  0  4           0  0  0
  -11.7931   -3.0818    3.8515 C   0  0  0  0  0  4           0  0  0
  -11.6777   -4.3613    3.1172 C   0  0  1  0  0  4           0  0  0
    9.5270    4.5348   -3.8736 C   0  0  0  0  0  4           0  0  0
   -8.4711   -0.0000    5.6256 C   0  0  0  0  0  4           0  0  0
  -12.2636   -4.3299    1.7147 C   0  0  0  0  0  4           0  0  0
    7.8798    0.0000   -4.2193 C   0  0  0  0  0  4           0  0  0
  -10.6079   -2.5471    4.1529 C   0  0  0  0  0  4           0  0  0
   10.0494    5.4028   -2.7761 C   0  0  0  0  0  4           0  0  0
    9.4917    6.5619   -2.4085 C   0  0  0  0  0  4           0  0  0
   -6.9496   -0.0000    5.6256 C   0  0  0  0  0  4           0  0  0
    6.3569    0.0000   -4.2193 C   0  0  0  0  0  4           0  0  0
   -6.3569   -0.0000    4.2193 C   0  0  0  0  0  4           0  0  0
    5.7642    0.0000   -2.8129 C   0  0  0  0  0  4           0  0  0
   -4.8307   -0.0000    4.2193 C   0  0  0  0  0  4           0  0  0
    4.2380    0.0000   -2.8129 C   0  0  0  0  0  4           0  0  0
   -4.2380   -0.0000    2.8129 C   0  0  0  0  0  4           0  0  0
    3.6452    0.0000   -1.4064 C   0  0  0  0  0  4           0  0  0
   -2.7117   -0.0000    2.8129 C   0  0  0  0  0  4           0  0  0
    2.1190    0.0000   -1.4064 C   0  0  0  0  0  4           0  0  0
   -2.1190   -0.0000    1.4064 C   0  0  0  0  0  4           0  0  0
    1.5262    0.0000    0.0000 C   0  0  0  0  0  4           0  0  0
   -0.5927    0.0000    1.4064 C   0  0  0  0  0  4           0  0  0
    0.0000   -0.0000    0.0000 C   0  0  0  0  0  4           0  0  0
  1 10  2  0     0  0
  2 11  2  0     0  0
  3 12  2  0     0  0
  4 10  1  0     0  0
  4 15  1  0     0  0
  5 11  1  0     0  0
  5 14  1  0     0  0
  6 12  1  0     0  0
  6 16  1  0     0  0
  7 13  1  0     0  0
  8 17  1  0     0  0
  9 10  1  0     0  0
  9 18  1  0     0  0
 11 19  1  0     0  0
 12 19  1  0     0  0
 13 14  1  0     0  0
 13 19  2  0     0  0
 14 17  1  0     0  0
 15 20  1  0     0  0
 16 22  1  0     0  0
 18 23  1  0     0  0
 20 21  2  0     0  0
 22 24  1  0     0  0
 23 25  1  0     0  0
 24 26  1  0     0  0
 25 27  1  0     0  0
 26 28  1  0     0  0
 27 29  1  0     0  0
 28 30  1  0     0  0
 29 31  1  0     0  0
 30 32  1  0     0  0
 31 33  1  0     0  0
 32 34  1  0     0  0
 33 35  1  0     0  0
 34 35  1  0     0  0
M  END
> <standard_type>
IC50

> <# Confs.>
25

> <canonical_smiles>
OC([C@@H](CO)O1)=C(C(OCCCCCCCCCCCCCCCCNC(OCC=C)=O)=O)C1=O

> <standard_relation>
=

> <predicted_activity_value>
4.5376020021010435

> <actual_activity_value>
4.640164517660112

> <Compound>
17

> <publication_ID>
nan

> <standard_units>
nM

> hash
23367683470544921

$$$$
17_
XXILIB    08252103493D 0   0.00000     0.00000

 35 35  0     1  0            999 V2000
    8.5297   -2.2952   -5.8362 O   0  0  0  0  0  2           0  0  0
   -8.4026    3.3712    3.6926 O   0  0  0  0  0  2           0  0  0
  -11.1218    0.5296    5.3199 O   0  0  0  0  0  2           0  0  0
    9.1942   -0.8467   -7.4903 O   0  0  0  0  0  2           0  0  0
  -10.2581    4.5266    2.9933 O   0  0  0  0  0  2           0  0  0
   -8.9405    1.1732    4.9482 O   0  0  0  0  0  2           0  0  0
  -13.0371    2.5803    4.1058 O   0  0  0  0  0  2           0  0  0
  -11.6778    5.6319    5.1272 O   0  0  0  0  0  2           0  0  0
    8.4194    0.0000   -5.5618 N   0  0  0  0  0  3           0  0  0
    8.6990   -1.1550   -6.2574 C   0  0  0  0  0  4           0  0  0
   -9.6133    3.4930    3.6110 C   0  0  0  0  0  4           0  0  0
  -10.2877    1.3035    4.8730 C   0  0  0  0  0  4           0  0  0
  -11.7931    3.0773    3.8437 C   0  0  0  0  0  4           0  0  0
  -11.6777    4.3530    3.1028 C   0  0  1  0  0  4           0  0  0
    9.5270   -1.9680   -8.3194 C   0  0  0  0  0  4           0  0  0
   -8.4711   -0.0000    5.6256 C   0  0  0  0  0  4           0  0  0
  -12.2636    5.5519    3.8312 C   0  0  0  0  0  4           0  0  0
    7.8798    0.0000   -4.2193 C   0  0  0  0  0  4           0  0  0
  -10.6079    2.5489    4.1561 C   0  0  0  0  0  4           0  0  0
   10.0494   -1.4515   -9.6200 C   0  0  0  0  0  4           0  0  0
    9.4917   -1.7127  -10.8075 C   0  0  0  0  0  4           0  0  0
   -6.9496   -0.0000    5.6256 C   0  0  0  0  0  4           0  0  0
    6.3569    0.0000   -4.2193 C   0  0  0  0  0  4           0  0  0
   -6.3569   -0.0000    4.2193 C   0  0  0  0  0  4           0  0  0
    5.7642    0.0000   -2.8129 C   0  0  0  0  0  4           0  0  0
   -4.8307   -0.0000    4.2193 C   0  0  0  0  0  4           0  0  0
    4.2380    0.0000   -2.8129 C   0  0  0  0  0  4           0  0  0
   -4.2380   -0.0000    2.8129 C   0  0  0  0  0  4           0  0  0
    3.6452    0.0000   -1.4064 C   0  0  0  0  0  4           0  0  0
   -2.7117   -0.0000    2.8129 C   0  0  0  0  0  4           0  0  0
    2.1190    0.0000   -1.4064 C   0  0  0  0  0  4           0  0  0
   -2.1190   -0.0000    1.4064 C   0  0  0  0  0  4           0  0  0
    1.5262    0.0000    0.0000 C   0  0  0  0  0  4           0  0  0
   -0.5927    0.0000    1.4064 C   0  0  0  0  0  4           0  0  0
    0.0000   -0.0000    0.0000 C   0  0  0  0  0  4           0  0  0
  1 10  2  0     0  0
  2 11  2  0     0  0
  3 12  2  0     0  0
  4 10  1  0     0  0
  4 15  1  0     0  0
  5 11  1  0     0  0
  5 14  1  0     0  0
  6 12  1  0     0  0
  6 16  1  0     0  0
  7 13  1  0     0  0
  8 17  1  0     0  0
  9 10  1  0     0  0
  9 18  1  0     0  0
 11 19  1  0     0  0
 12 19  1  0     0  0
 13 14  1  0     0  0
 13 19  2  0     0  0
 14 17  1  0     0  0
 15 20  1  0     0  0
 16 22  1  0     0  0
 18 23  1  0     0  0
 20 21  2  0     0  0
 22 24  1  0     0  0
 23 25  1  0     0  0
 24 26  1  0     0  0
 25 27  1  0     0  0
 26 28  1  0     0  0
 27 29  1  0     0  0
 28 30  1  0     0  0
 29 31  1  0     0  0
 30 32  1  0     0  0
 31 33  1  0     0  0
 32 34  1  0     0  0
 33 35  1  0     0  0
 34 35  1  0     0  0
M  END
> <standard_type>
IC50

> <# Confs.>
25

> <canonical_smiles>
OC([C@@H](CO)O1)=C(C(OCCCCCCCCCCCCCCCCNC(OCC=C)=O)=O)C1=O

> <standard_relation>
=

> <predicted_activity_value>
4.5376020021010435

> <actual_activity_value>
4.640164517660112

> <Compound>
17

> <publication_ID>
nan

> <standard_units>
nM

> hash
23367683470544921

$$$$
17_
XXILIB    08252103493D 0   0.00000     0.00000

 35 35  0     1  0            999 V2000
    8.5297   -2.2952   -5.8362 O   0  0  0  0  0  2           0  0  0
   -8.4026   -0.0116    9.5117 O   0  0  0  0  0  2           0  0  0
  -11.1218   -0.0000    6.2371 O   0  0  0  0  0  2           0  0  0
    9.1942   -0.8467   -7.4903 O   0  0  0  0  0  2           0  0  0
  -10.2581    0.0163   10.8619 O   0  0  0  0  0  2           0  0  0
   -8.9405   -0.0000    6.9803 O   0  0  0  0  0  2           0  0  0
  -13.0371    0.0260    8.6201 O   0  0  0  0  0  2           0  0  0
  -11.6778   -2.3843   10.7522 O   0  0  0  0  0  2           0  0  0
    8.4194    0.0000   -5.5618 N   0  0  0  0  0  3           0  0  0
    8.6990   -1.1550   -6.2574 C   0  0  0  0  0  4           0  0  0
   -9.6133   -0.0018    9.6579 C   0  0  0  0  0  4           0  0  0
  -10.2877   -0.0000    7.1307 C   0  0  0  0  0  4           0  0  0
  -11.7931    0.0045    9.1816 C   0  0  0  0  0  4           0  0  0
  -11.6777    0.0084   10.6568 C   0  0  1  0  0  4           0  0  0
    9.5270   -1.9680   -8.3194 C   0  0  0  0  0  4           0  0  0
   -8.4711   -0.0000    5.6256 C   0  0  0  0  0  4           0  0  0
  -12.2636   -1.2219   11.3309 C   0  0  0  0  0  4           0  0  0
    7.8798    0.0000   -4.2193 C   0  0  0  0  0  4           0  0  0
  -10.6079   -0.0018    8.5678 C   0  0  0  0  0  4           0  0  0
   10.0494   -1.4515   -9.6200 C   0  0  0  0  0  4           0  0  0
    9.4917   -1.7127  -10.8075 C   0  0  0  0  0  4           0  0  0
   -6.9496   -0.0000    5.6256 C   0  0  0  0  0  4           0  0  0
    6.3569    0.0000   -4.2193 C   0  0  0  0  0  4           0  0  0
   -6.3569   -0.0000    4.2193 C   0  0  0  0  0  4           0  0  0
    5.7642    0.0000   -2.8129 C   0  0  0  0  0  4           0  0  0
   -4.8307   -0.0000    4.2193 C   0  0  0  0  0  4           0  0  0
    4.2380    0.0000   -2.8129 C   0  0  0  0  0  4           0  0  0
   -4.2380   -0.0000    2.8129 C   0  0  0  0  0  4           0  0  0
    3.6452    0.0000   -1.4064 C   0  0  0  0  0  4           0  0  0
   -2.7117   -0.0000    2.8129 C   0  0  0  0  0  4           0  0  0
    2.1190    0.0000   -1.4064 C   0  0  0  0  0  4           0  0  0
   -2.1190   -0.0000    1.4064 C   0  0  0  0  0  4           0  0  0
    1.5262    0.0000    0.0000 C   0  0  0  0  0  4           0  0  0
   -0.5927    0.0000    1.4064 C   0  0  0  0  0  4           0  0  0
    0.0000   -0.0000    0.0000 C   0  0  0  0  0  4           0  0  0
  1 10  2  0     0  0
  2 11  2  0     0  0
  3 12  2  0     0  0
  4 10  1  0     0  0
  4 15  1  0     0  0
  5 11  1  0     0  0
  5 14  1  0     0  0
  6 12  1  0     0  0
  6 16  1  0     0  0
  7 13  1  0     0  0
  8 17  1  0     0  0
  9 10  1  0     0  0
  9 18  1  0     0  0
 11 19  1  0     0  0
 12 19  1  0     0  0
 13 14  1  0     0  0
 13 19  2  0     0  0
 14 17  1  0     0  0
 15 20  1  0     0  0
 16 22  1  0     0  0
 18 23  1  0     0  0
 20 21  2  0     0  0
 22 24  1  0     0  0
 23 25  1  0     0  0
 24 26  1  0     0  0
 25 27  1  0     0  0
 26 28  1  0     0  0
 27 29  1  0     0  0
 28 30  1  0     0  0
 29 31  1  0     0  0
 30 32  1  0     0  0
 31 33  1  0     0  0
 32 34  1  0     0  0
 33 35  1  0     0  0
 34 35  1  0     0  0
M  END
> <standard_type>
IC50

> <# Confs.>
25

> <canonical_smiles>
OC([C@@H](CO)O1)=C(C(OCCCCCCCCCCCCCCCCNC(OCC=C)=O)=O)C1=O

> <standard_relation>
=

> <predicted_activity_value>
4.5376020021010435

> <actual_activity_value>
4.640164517660112

> <Compound>
17

> <publication_ID>
nan

> <standard_units>
nM

> hash
23367683470544921

$$$$
17_
XXILIB    08252103493D 0   0.00000     0.00000

 35 35  0     1  0            999 V2000
    8.5297   -2.2952   -5.8362 O   0  0  0  0  0  2           0  0  0
   -8.4026   -3.3597    3.6725 O   0  0  0  0  0  2           0  0  0
  -11.1218   -0.5296    5.3199 O   0  0  0  0  0  2           0  0  0
    9.1942   -0.8467   -7.4903 O   0  0  0  0  0  2           0  0  0
  -10.2581   -4.5430    3.0216 O   0  0  0  0  0  2           0  0  0
   -8.9405   -1.1732    4.9482 O   0  0  0  0  0  2           0  0  0
  -13.0371   -2.6064    4.1509 O   0  0  0  0  0  2           0  0  0
  -11.6778   -3.2476    0.9974 O   0  0  0  0  0  2           0  0  0
    8.4194    0.0000   -5.5618 N   0  0  0  0  0  3           0  0  0
    8.6990   -1.1550   -6.2574 C   0  0  0  0  0  4           0  0  0
   -9.6133   -3.4911    3.6079 C   0  0  0  0  0  4           0  0  0
  -10.2877   -1.3035    4.8730 C   0  0  0  0  0  4           0  0  0
  -11.7931   -3.0818    3.8515 C   0  0  0  0  0  4           0  0  0
  -11.6777   -4.3613    3.1172 C   0  0  1  0  0  4           0  0  0
    9.5270   -1.9680   -8.3194 C   0  0  0  0  0  4           0  0  0
   -8.4711   -0.0000    5.6256 C   0  0  0  0  0  4           0  0  0
  -12.2636   -4.3299    1.7147 C   0  0  0  0  0  4           0  0  0
    7.8798    0.0000   -4.2193 C   0  0  0  0  0  4           0  0  0
  -10.6079   -2.5471    4.1529 C   0  0  0  0  0  4           0  0  0
   10.0494   -1.4515   -9.6200 C   0  0  0  0  0  4           0  0  0
    9.4917   -1.7127  -10.8075 C   0  0  0  0  0  4           0  0  0
   -6.9496   -0.0000    5.6256 C   0  0  0  0  0  4           0  0  0
    6.3569    0.0000   -4.2193 C   0  0  0  0  0  4           0  0  0
   -6.3569   -0.0000    4.2193 C   0  0  0  0  0  4           0  0  0
    5.7642    0.0000   -2.8129 C   0  0  0  0  0  4           0  0  0
   -4.8307   -0.0000    4.2193 C   0  0  0  0  0  4           0  0  0
    4.2380    0.0000   -2.8129 C   0  0  0  0  0  4           0  0  0
   -4.2380   -0.0000    2.8129 C   0  0  0  0  0  4           0  0  0
    3.6452    0.0000   -1.4064 C   0  0  0  0  0  4           0  0  0
   -2.7117   -0.0000    2.8129 C   0  0  0  0  0  4           0  0  0
    2.1190    0.0000   -1.4064 C   0  0  0  0  0  4           0  0  0
   -2.1190   -0.0000    1.4064 C   0  0  0  0  0  4           0  0  0
    1.5262    0.0000    0.0000 C   0  0  0  0  0  4           0  0  0
   -0.5927    0.0000    1.4064 C   0  0  0  0  0  4           0  0  0
    0.0000   -0.0000    0.0000 C   0  0  0  0  0  4           0  0  0
  1 10  2  0     0  0
  2 11  2  0     0  0
  3 12  2  0     0  0
  4 10  1  0     0  0
  4 15  1  0     0  0
  5 11  1  0     0  0
  5 14  1  0     0  0
  6 12  1  0     0  0
  6 16  1  0     0  0
  7 13  1  0     0  0
  8 17  1  0     0  0
  9 10  1  0     0  0
  9 18  1  0     0  0
 11 19  1  0     0  0
 12 19  1  0     0  0
 13 14  1  0     0  0
 13 19  2  0     0  0
 14 17  1  0     0  0
 15 20  1  0     0  0
 16 22  1  0     0  0
 18 23  1  0     0  0
 20 21  2  0     0  0
 22 24  1  0     0  0
 23 25  1  0     0  0
 24 26  1  0     0  0
 25 27  1  0     0  0
 26 28  1  0     0  0
 27 29  1  0     0  0
 28 30  1  0     0  0
 29 31  1  0     0  0
 30 32  1  0     0  0
 31 33  1  0     0  0
 32 34  1  0     0  0
 33 35  1  0     0  0
 34 35  1  0     0  0
M  END
> <standard_type>
IC50

> <# Confs.>
25

> <canonical_smiles>
OC([C@@H](CO)O1)=C(C(OCCCCCCCCCCCCCCCCNC(OCC=C)=O)=O)C1=O

> <standard_relation>
=

> <predicted_activity_value>
4.5376020021010435

> <actual_activity_value>
4.640164517660112

> <Compound>
17

> <publication_ID>
nan

> <standard_units>
nM

> hash
23367683470544921

$$$$
17_
XXILIB    08252103493D 0   0.00000     0.00000

 35 35  0     1  0            999 V2000
    9.5945    0.0357   -1.9035 O   0  0  0  0  0  2           0  0  0
   -8.4026    3.3712    3.6926 O   0  0  0  0  0  2           0  0  0
  -11.1218    0.5296    5.3199 O   0  0  0  0  0  2           0  0  0
    9.5876    2.3293   -2.0281 O   0  0  0  0  0  2           0  0  0
  -10.2581    4.5266    2.9933 O   0  0  0  0  0  2           0  0  0
   -8.9405    1.1732    4.9482 O   0  0  0  0  0  2           0  0  0
  -13.0371    2.5803    4.1058 O   0  0  0  0  0  2           0  0  0
  -11.6778    5.6319    5.1272 O   0  0  0  0  0  2           0  0  0
    8.4194    1.1626   -3.5481 N   0  0  0  0  0  3           0  0  0
    9.2348    1.0783   -2.4418 C   0  0  0  0  0  4           0  0  0
   -9.6133    3.4930    3.6110 C   0  0  0  0  0  4           0  0  0
  -10.2877    1.3035    4.8730 C   0  0  0  0  0  4           0  0  0
  -11.7931    3.0773    3.8437 C   0  0  0  0  0  4           0  0  0
  -11.6777    4.3530    3.1028 C   0  0  1  0  0  4           0  0  0
   10.4413    2.3806   -0.8773 C   0  0  0  0  0  4           0  0  0
   -8.4711   -0.0000    5.6256 C   0  0  0  0  0  4           0  0  0
  -12.2636    5.5519    3.8312 C   0  0  0  0  0  4           0  0  0
    7.8798    0.0000   -4.2193 C   0  0  0  0  0  4           0  0  0
  -10.6079    2.5489    4.1561 C   0  0  0  0  0  4           0  0  0
   10.7247    3.8138   -0.5665 C   0  0  0  0  0  4           0  0  0
   11.9509    4.3482   -0.5513 C   0  0  0  0  0  4           0  0  0
   -6.9496   -0.0000    5.6256 C   0  0  0  0  0  4           0  0  0
    6.3569    0.0000   -4.2193 C   0  0  0  0  0  4           0  0  0
   -6.3569   -0.0000    4.2193 C   0  0  0  0  0  4           0  0  0
    5.7642    0.0000   -2.8129 C   0  0  0  0  0  4           0  0  0
   -4.8307   -0.0000    4.2193 C   0  0  0  0  0  4           0  0  0
    4.2380    0.0000   -2.8129 C   0  0  0  0  0  4           0  0  0
   -4.2380   -0.0000    2.8129 C   0  0  0  0  0  4           0  0  0
    3.6452    0.0000   -1.4064 C   0  0  0  0  0  4           0  0  0
   -2.7117   -0.0000    2.8129 C   0  0  0  0  0  4           0  0  0
    2.1190    0.0000   -1.4064 C   0  0  0  0  0  4           0  0  0
   -2.1190   -0.0000    1.4064 C   0  0  0  0  0  4           0  0  0
    1.5262    0.0000    0.0000 C   0  0  0  0  0  4           0  0  0
   -0.5927    0.0000    1.4064 C   0  0  0  0  0  4           0  0  0
    0.0000   -0.0000    0.0000 C   0  0  0  0  0  4           0  0  0
  1 10  2  0     0  0
  2 11  2  0     0  0
  3 12  2  0     0  0
  4 10  1  0     0  0
  4 15  1  0     0  0
  5 11  1  0     0  0
  5 14  1  0     0  0
  6 12  1  0     0  0
  6 16  1  0     0  0
  7 13  1  0     0  0
  8 17  1  0     0  0
  9 10  1  0     0  0
  9 18  1  0     0  0
 11 19  1  0     0  0
 12 19  1  0     0  0
 13 14  1  0     0  0
 13 19  2  0     0  0
 14 17  1  0     0  0
 15 20  1  0     0  0
 16 22  1  0     0  0
 18 23  1  0     0  0
 20 21  2  0     0  0
 22 24  1  0     0  0
 23 25  1  0     0  0
 24 26  1  0     0  0
 25 27  1  0     0  0
 26 28  1  0     0  0
 27 29  1  0     0  0
 28 30  1  0     0  0
 29 31  1  0     0  0
 30 32  1  0     0  0
 31 33  1  0     0  0
 32 34  1  0     0  0
 33 35  1  0     0  0
 34 35  1  0     0  0
M  END
> <standard_type>
IC50

> <# Confs.>
25

> <canonical_smiles>
OC([C@@H](CO)O1)=C(C(OCCCCCCCCCCCCCCCCNC(OCC=C)=O)=O)C1=O

> <standard_relation>
=

> <predicted_activity_value>
4.5376020021010435

> <actual_activity_value>
4.640164517660112

> <Compound>
17

> <publication_ID>
nan

> <standard_units>
nM

> hash
23367683470544921

$$$$
17_
XXILIB    08252103493D 0   0.00000     0.00000

 35 35  0     1  0            999 V2000
    9.5945    0.0357   -1.9035 O   0  0  0  0  0  2           0  0  0
   -8.4026   -0.0116    9.5117 O   0  0  0  0  0  2           0  0  0
  -11.1218   -0.0000    6.2371 O   0  0  0  0  0  2           0  0  0
    9.5876    2.3293   -2.0281 O   0  0  0  0  0  2           0  0  0
  -10.2581    0.0163   10.8619 O   0  0  0  0  0  2           0  0  0
   -8.9405   -0.0000    6.9803 O   0  0  0  0  0  2           0  0  0
  -13.0371    0.0260    8.6201 O   0  0  0  0  0  2           0  0  0
  -11.6778   -2.3843   10.7522 O   0  0  0  0  0  2           0  0  0
    8.4194    1.1626   -3.5481 N   0  0  0  0  0  3           0  0  0
    9.2348    1.0783   -2.4418 C   0  0  0  0  0  4           0  0  0
   -9.6133   -0.0018    9.6579 C   0  0  0  0  0  4           0  0  0
  -10.2877   -0.0000    7.1307 C   0  0  0  0  0  4           0  0  0
  -11.7931    0.0045    9.1816 C   0  0  0  0  0  4           0  0  0
  -11.6777    0.0084   10.6568 C   0  0  1  0  0  4           0  0  0
   10.4413    2.3806   -0.8773 C   0  0  0  0  0  4           0  0  0
   -8.4711   -0.0000    5.6256 C   0  0  0  0  0  4           0  0  0
  -12.2636   -1.2219   11.3309 C   0  0  0  0  0  4           0  0  0
    7.8798    0.0000   -4.2193 C   0  0  0  0  0  4           0  0  0
  -10.6079   -0.0018    8.5678 C   0  0  0  0  0  4           0  0  0
   10.7247    3.8138   -0.5665 C   0  0  0  0  0  4           0  0  0
   11.9509    4.3482   -0.5513 C   0  0  0  0  0  4           0  0  0
   -6.9496   -0.0000    5.6256 C   0  0  0  0  0  4           0  0  0
    6.3569    0.0000   -4.2193 C   0  0  0  0  0  4           0  0  0
   -6.3569   -0.0000    4.2193 C   0  0  0  0  0  4           0  0  0
    5.7642    0.0000   -2.8129 C   0  0  0  0  0  4           0  0  0
   -4.8307   -0.0000    4.2193 C   0  0  0  0  0  4           0  0  0
    4.2380    0.0000   -2.8129 C   0  0  0  0  0  4           0  0  0
   -4.2380   -0.0000    2.8129 C   0  0  0  0  0  4           0  0  0
    3.6452    0.0000   -1.4064 C   0  0  0  0  0  4           0  0  0
   -2.7117   -0.0000    2.8129 C   0  0  0  0  0  4           0  0  0
    2.1190    0.0000   -1.4064 C   0  0  0  0  0  4           0  0  0
   -2.1190   -0.0000    1.4064 C   0  0  0  0  0  4           0  0  0
    1.5262    0.0000    0.0000 C   0  0  0  0  0  4           0  0  0
   -0.5927    0.0000    1.4064 C   0  0  0  0  0  4           0  0  0
    0.0000   -0.0000    0.0000 C   0  0  0  0  0  4           0  0  0
  1 10  2  0     0  0
  2 11  2  0     0  0
  3 12  2  0     0  0
  4 10  1  0     0  0
  4 15  1  0     0  0
  5 11  1  0     0  0
  5 14  1  0     0  0
  6 12  1  0     0  0
  6 16  1  0     0  0
  7 13  1  0     0  0
  8 17  1  0     0  0
  9 10  1  0     0  0
  9 18  1  0     0  0
 11 19  1  0     0  0
 12 19  1  0     0  0
 13 14  1  0     0  0
 13 19  2  0     0  0
 14 17  1  0     0  0
 15 20  1  0     0  0
 16 22  1  0     0  0
 18 23  1  0     0  0
 20 21  2  0     0  0
 22 24  1  0     0  0
 23 25  1  0     0  0
 24 26  1  0     0  0
 25 27  1  0     0  0
 26 28  1  0     0  0
 27 29  1  0     0  0
 28 30  1  0     0  0
 29 31  1  0     0  0
 30 32  1  0     0  0
 31 33  1  0     0  0
 32 34  1  0     0  0
 33 35  1  0     0  0
 34 35  1  0     0  0
M  END
> <standard_type>
IC50

> <# Confs.>
25

> <canonical_smiles>
OC([C@@H](CO)O1)=C(C(OCCCCCCCCCCCCCCCCNC(OCC=C)=O)=O)C1=O

> <standard_relation>
=

> <predicted_activity_value>
4.5376020021010435

> <actual_activity_value>
4.640164517660112

> <Compound>
17

> <publication_ID>
nan

> <standard_units>
nM

> hash
23367683470544921

$$$$
17_
XXILIB    08252103493D 0   0.00000     0.00000

 35 35  0     1  0            999 V2000
    9.5945    0.0357   -1.9035 O   0  0  0  0  0  2           0  0  0
   -8.4026   -3.3597    3.6725 O   0  0  0  0  0  2           0  0  0
  -11.1218   -0.5296    5.3199 O   0  0  0  0  0  2           0  0  0
    9.5876    2.3293   -2.0281 O   0  0  0  0  0  2           0  0  0
  -10.2581   -4.5430    3.0216 O   0  0  0  0  0  2           0  0  0
   -8.9405   -1.1732    4.9482 O   0  0  0  0  0  2           0  0  0
  -13.0371   -2.6064    4.1509 O   0  0  0  0  0  2           0  0  0
  -11.6778   -3.2476    0.9974 O   0  0  0  0  0  2           0  0  0
    8.4194    1.1626   -3.5481 N   0  0  0  0  0  3           0  0  0
    9.2348    1.0783   -2.4418 C   0  0  0  0  0  4           0  0  0
   -9.6133   -3.4911    3.6079 C   0  0  0  0  0  4           0  0  0
  -10.2877   -1.3035    4.8730 C   0  0  0  0  0  4           0  0  0
  -11.7931   -3.0818    3.8515 C   0  0  0  0  0  4           0  0  0
  -11.6777   -4.3613    3.1172 C   0  0  1  0  0  4           0  0  0
   10.4413    2.3806   -0.8773 C   0  0  0  0  0  4           0  0  0
   -8.4711   -0.0000    5.6256 C   0  0  0  0  0  4           0  0  0
  -12.2636   -4.3299    1.7147 C   0  0  0  0  0  4           0  0  0
    7.8798    0.0000   -4.2193 C   0  0  0  0  0  4           0  0  0
  -10.6079   -2.5471    4.1529 C   0  0  0  0  0  4           0  0  0
   10.7247    3.8138   -0.5665 C   0  0  0  0  0  4           0  0  0
   11.9509    4.3482   -0.5513 C   0  0  0  0  0  4           0  0  0
   -6.9496   -0.0000    5.6256 C   0  0  0  0  0  4           0  0  0
    6.3569    0.0000   -4.2193 C   0  0  0  0  0  4           0  0  0
   -6.3569   -0.0000    4.2193 C   0  0  0  0  0  4           0  0  0
    5.7642    0.0000   -2.8129 C   0  0  0  0  0  4           0  0  0
   -4.8307   -0.0000    4.2193 C   0  0  0  0  0  4           0  0  0
    4.2380    0.0000   -2.8129 C   0  0  0  0  0  4           0  0  0
   -4.2380   -0.0000    2.8129 C   0  0  0  0  0  4           0  0  0
    3.6452    0.0000   -1.4064 C   0  0  0  0  0  4           0  0  0
   -2.7117   -0.0000    2.8129 C   0  0  0  0  0  4           0  0  0
    2.1190    0.0000   -1.4064 C   0  0  0  0  0  4           0  0  0
   -2.1190   -0.0000    1.4064 C   0  0  0  0  0  4           0  0  0
    1.5262    0.0000    0.0000 C   0  0  0  0  0  4           0  0  0
   -0.5927    0.0000    1.4064 C   0  0  0  0  0  4           0  0  0
    0.0000   -0.0000    0.0000 C   0  0  0  0  0  4           0  0  0
  1 10  2  0     0  0
  2 11  2  0     0  0
  3 12  2  0     0  0
  4 10  1  0     0  0
  4 15  1  0     0  0
  5 11  1  0     0  0
  5 14  1  0     0  0
  6 12  1  0     0  0
  6 16  1  0     0  0
  7 13  1  0     0  0
  8 17  1  0     0  0
  9 10  1  0     0  0
  9 18  1  0     0  0
 11 19  1  0     0  0
 12 19  1  0     0  0
 13 14  1  0     0  0
 13 19  2  0     0  0
 14 17  1  0     0  0
 15 20  1  0     0  0
 16 22  1  0     0  0
 18 23  1  0     0  0
 20 21  2  0     0  0
 22 24  1  0     0  0
 23 25  1  0     0  0
 24 26  1  0     0  0
 25 27  1  0     0  0
 26 28  1  0     0  0
 27 29  1  0     0  0
 28 30  1  0     0  0
 29 31  1  0     0  0
 30 32  1  0     0  0
 31 33  1  0     0  0
 32 34  1  0     0  0
 33 35  1  0     0  0
 34 35  1  0     0  0
M  END
> <standard_type>
IC50

> <# Confs.>
25

> <canonical_smiles>
OC([C@@H](CO)O1)=C(C(OCCCCCCCCCCCCCCCCNC(OCC=C)=O)=O)C1=O

> <standard_relation>
=

> <predicted_activity_value>
4.5376020021010435

> <actual_activity_value>
4.640164517660112

> <Compound>
17

> <publication_ID>
nan

> <standard_units>
nM

> hash
23367683470544921

$$$$
17_
XXILIB    08252103493D 0   0.00000     0.00000

 35 35  0     1  0            999 V2000
    9.5945   -0.0357   -1.9035 O   0  0  0  0  0  2           0  0  0
   -8.4026   -0.0116    9.5117 O   0  0  0  0  0  2           0  0  0
  -11.1218   -0.0000    6.2371 O   0  0  0  0  0  2           0  0  0
    9.5870   -2.3293   -2.0276 O   0  0  0  0  0  2           0  0  0
  -10.2581    0.0163   10.8619 O   0  0  0  0  0  2           0  0  0
   -8.9405   -0.0000    6.9803 O   0  0  0  0  0  2           0  0  0
  -13.0371    0.0260    8.6201 O   0  0  0  0  0  2           0  0  0
  -11.6778   -2.3843   10.7522 O   0  0  0  0  0  2           0  0  0
    8.4194   -1.1626   -3.5481 N   0  0  0  0  0  3           0  0  0
    9.2348   -1.0783   -2.4418 C   0  0  0  0  0  4           0  0  0
   -9.6133   -0.0018    9.6579 C   0  0  0  0  0  4           0  0  0
  -10.2877   -0.0000    7.1307 C   0  0  0  0  0  4           0  0  0
  -11.7931    0.0045    9.1816 C   0  0  0  0  0  4           0  0  0
  -11.6777    0.0084   10.6568 C   0  0  1  0  0  4           0  0  0
   10.4401   -2.3806   -0.8765 C   0  0  0  0  0  4           0  0  0
   -8.4711   -0.0000    5.6256 C   0  0  0  0  0  4           0  0  0
  -12.2636   -1.2219   11.3309 C   0  0  0  0  0  4           0  0  0
    7.8798    0.0000   -4.2193 C   0  0  0  0  0  4           0  0  0
  -10.6079   -0.0018    8.5678 C   0  0  0  0  0  4           0  0  0
   10.7230   -3.8138   -0.5653 C   0  0  0  0  0  4           0  0  0
   10.4058   -4.4054    0.5919 C   0  0  0  0  0  4           0  0  0
   -6.9496   -0.0000    5.6256 C   0  0  0  0  0  4           0  0  0
    6.3569    0.0000   -4.2193 C   0  0  0  0  0  4           0  0  0
   -6.3569   -0.0000    4.2193 C   0  0  0  0  0  4           0  0  0
    5.7642    0.0000   -2.8129 C   0  0  0  0  0  4           0  0  0
   -4.8307   -0.0000    4.2193 C   0  0  0  0  0  4           0  0  0
    4.2380    0.0000   -2.8129 C   0  0  0  0  0  4           0  0  0
   -4.2380   -0.0000    2.8129 C   0  0  0  0  0  4           0  0  0
    3.6452    0.0000   -1.4064 C   0  0  0  0  0  4           0  0  0
   -2.7117   -0.0000    2.8129 C   0  0  0  0  0  4           0  0  0
    2.1190    0.0000   -1.4064 C   0  0  0  0  0  4           0  0  0
   -2.1190   -0.0000    1.4064 C   0  0  0  0  0  4           0  0  0
    1.5262    0.0000    0.0000 C   0  0  0  0  0  4           0  0  0
   -0.5927    0.0000    1.4064 C   0  0  0  0  0  4           0  0  0
    0.0000   -0.0000    0.0000 C   0  0  0  0  0  4           0  0  0
  1 10  2  0     0  0
  2 11  2  0     0  0
  3 12  2  0     0  0
  4 10  1  0     0  0
  4 15  1  0     0  0
  5 11  1  0     0  0
  5 14  1  0     0  0
  6 12  1  0     0  0
  6 16  1  0     0  0
  7 13  1  0     0  0
  8 17  1  0     0  0
  9 10  1  0     0  0
  9 18  1  0     0  0
 11 19  1  0     0  0
 12 19  1  0     0  0
 13 14  1  0     0  0
 13 19  2  0     0  0
 14 17  1  0     0  0
 15 20  1  0     0  0
 16 22  1  0     0  0
 18 23  1  0     0  0
 20 21  2  0     0  0
 22 24  1  0     0  0
 23 25  1  0     0  0
 24 26  1  0     0  0
 25 27  1  0     0  0
 26 28  1  0     0  0
 27 29  1  0     0  0
 28 30  1  0     0  0
 29 31  1  0     0  0
 30 32  1  0     0  0
 31 33  1  0     0  0
 32 34  1  0     0  0
 33 35  1  0     0  0
 34 35  1  0     0  0
M  END
> <standard_type>
IC50

> <# Confs.>
25

> <canonical_smiles>
OC([C@@H](CO)O1)=C(C(OCCCCCCCCCCCCCCCCNC(OCC=C)=O)=O)C1=O

> <standard_relation>
=

> <predicted_activity_value>
4.5376020021010435

> <actual_activity_value>
4.640164517660112

> <Compound>
17

> <publication_ID>
nan

> <standard_units>
nM

> hash
23367683470544921

$$$$
17_
XXILIB    08252103493D 0   0.00000     0.00000

 35 35  0     1  0            999 V2000
    9.5945   -0.0357   -1.9035 O   0  0  0  0  0  2           0  0  0
   -8.4026    3.3712    3.6926 O   0  0  0  0  0  2           0  0  0
  -11.1218    0.5296    5.3199 O   0  0  0  0  0  2           0  0  0
    9.5870   -2.3293   -2.0276 O   0  0  0  0  0  2           0  0  0
  -10.2581    4.5266    2.9933 O   0  0  0  0  0  2           0  0  0
   -8.9405    1.1732    4.9482 O   0  0  0  0  0  2           0  0  0
  -13.0371    2.5803    4.1058 O   0  0  0  0  0  2           0  0  0
  -11.6778    5.6319    5.1272 O   0  0  0  0  0  2           0  0  0
    8.4194   -1.1626   -3.5481 N   0  0  0  0  0  3           0  0  0
    9.2348   -1.0783   -2.4418 C   0  0  0  0  0  4           0  0  0
   -9.6133    3.4930    3.6110 C   0  0  0  0  0  4           0  0  0
  -10.2877    1.3035    4.8730 C   0  0  0  0  0  4           0  0  0
  -11.7931    3.0773    3.8437 C   0  0  0  0  0  4           0  0  0
  -11.6777    4.3530    3.1028 C   0  0  1  0  0  4           0  0  0
   10.4401   -2.3806   -0.8765 C   0  0  0  0  0  4           0  0  0
   -8.4711   -0.0000    5.6256 C   0  0  0  0  0  4           0  0  0
  -12.2636    5.5519    3.8312 C   0  0  0  0  0  4           0  0  0
    7.8798    0.0000   -4.2193 C   0  0  0  0  0  4           0  0  0
  -10.6079    2.5489    4.1561 C   0  0  0  0  0  4           0  0  0
   10.7230   -3.8138   -0.5653 C   0  0  0  0  0  4           0  0  0
   10.4058   -4.4054    0.5919 C   0  0  0  0  0  4           0  0  0
   -6.9496   -0.0000    5.6256 C   0  0  0  0  0  4           0  0  0
    6.3569    0.0000   -4.2193 C   0  0  0  0  0  4           0  0  0
   -6.3569   -0.0000    4.2193 C   0  0  0  0  0  4           0  0  0
    5.7642    0.0000   -2.8129 C   0  0  0  0  0  4           0  0  0
   -4.8307   -0.0000    4.2193 C   0  0  0  0  0  4           0  0  0
    4.2380    0.0000   -2.8129 C   0  0  0  0  0  4           0  0  0
   -4.2380   -0.0000    2.8129 C   0  0  0  0  0  4           0  0  0
    3.6452    0.0000   -1.4064 C   0  0  0  0  0  4           0  0  0
   -2.7117   -0.0000    2.8129 C   0  0  0  0  0  4           0  0  0
    2.1190    0.0000   -1.4064 C   0  0  0  0  0  4           0  0  0
   -2.1190   -0.0000    1.4064 C   0  0  0  0  0  4           0  0  0
    1.5262    0.0000    0.0000 C   0  0  0  0  0  4           0  0  0
   -0.5927    0.0000    1.4064 C   0  0  0  0  0  4           0  0  0
    0.0000   -0.0000    0.0000 C   0  0  0  0  0  4           0  0  0
  1 10  2  0     0  0
  2 11  2  0     0  0
  3 12  2  0     0  0
  4 10  1  0     0  0
  4 15  1  0     0  0
  5 11  1  0     0  0
  5 14  1  0     0  0
  6 12  1  0     0  0
  6 16  1  0     0  0
  7 13  1  0     0  0
  8 17  1  0     0  0
  9 10  1  0     0  0
  9 18  1  0     0  0
 11 19  1  0     0  0
 12 19  1  0     0  0
 13 14  1  0     0  0
 13 19  2  0     0  0
 14 17  1  0     0  0
 15 20  1  0     0  0
 16 22  1  0     0  0
 18 23  1  0     0  0
 20 21  2  0     0  0
 22 24  1  0     0  0
 23 25  1  0     0  0
 24 26  1  0     0  0
 25 27  1  0     0  0
 26 28  1  0     0  0
 27 29  1  0     0  0
 28 30  1  0     0  0
 29 31  1  0     0  0
 30 32  1  0     0  0
 31 33  1  0     0  0
 32 34  1  0     0  0
 33 35  1  0     0  0
 34 35  1  0     0  0
M  END
> <standard_type>
IC50

> <# Confs.>
25

> <canonical_smiles>
OC([C@@H](CO)O1)=C(C(OCCCCCCCCCCCCCCCCNC(OCC=C)=O)=O)C1=O

> <standard_relation>
=

> <predicted_activity_value>
4.5376020021010435

> <actual_activity_value>
4.640164517660112

> <Compound>
17

> <publication_ID>
nan

> <standard_units>
nM

> hash
23367683470544921

$$$$
17_
XXILIB    08252103493D 0   0.00000     0.00000

 35 35  0     1  0            999 V2000
    9.5945   -0.0357   -1.9035 O   0  0  0  0  0  2           0  0  0
   -8.4026   -3.3597    3.6725 O   0  0  0  0  0  2           0  0  0
  -11.1218   -0.5296    5.3199 O   0  0  0  0  0  2           0  0  0
    9.5870   -2.3293   -2.0276 O   0  0  0  0  0  2           0  0  0
  -10.2581   -4.5430    3.0216 O   0  0  0  0  0  2           0  0  0
   -8.9405   -1.1732    4.9482 O   0  0  0  0  0  2           0  0  0
  -13.0371   -2.6064    4.1509 O   0  0  0  0  0  2           0  0  0
  -11.6778   -3.2476    0.9974 O   0  0  0  0  0  2           0  0  0
    8.4194   -1.1626   -3.5481 N   0  0  0  0  0  3           0  0  0
    9.2348   -1.0783   -2.4418 C   0  0  0  0  0  4           0  0  0
   -9.6133   -3.4911    3.6079 C   0  0  0  0  0  4           0  0  0
  -10.2877   -1.3035    4.8730 C   0  0  0  0  0  4           0  0  0
  -11.7931   -3.0818    3.8515 C   0  0  0  0  0  4           0  0  0
  -11.6777   -4.3613    3.1172 C   0  0  1  0  0  4           0  0  0
   10.4401   -2.3806   -0.8765 C   0  0  0  0  0  4           0  0  0
   -8.4711   -0.0000    5.6256 C   0  0  0  0  0  4           0  0  0
  -12.2636   -4.3299    1.7147 C   0  0  0  0  0  4           0  0  0
    7.8798    0.0000   -4.2193 C   0  0  0  0  0  4           0  0  0
  -10.6079   -2.5471    4.1529 C   0  0  0  0  0  4           0  0  0
   10.7230   -3.8138   -0.5653 C   0  0  0  0  0  4           0  0  0
   10.4058   -4.4054    0.5919 C   0  0  0  0  0  4           0  0  0
   -6.9496   -0.0000    5.6256 C   0  0  0  0  0  4           0  0  0
    6.3569    0.0000   -4.2193 C   0  0  0  0  0  4           0  0  0
   -6.3569   -0.0000    4.2193 C   0  0  0  0  0  4           0  0  0
    5.7642    0.0000   -2.8129 C   0  0  0  0  0  4           0  0  0
   -4.8307   -0.0000    4.2193 C   0  0  0  0  0  4           0  0  0
    4.2380    0.0000   -2.8129 C   0  0  0  0  0  4           0  0  0
   -4.2380   -0.0000    2.8129 C   0  0  0  0  0  4           0  0  0
    3.6452    0.0000   -1.4064 C   0  0  0  0  0  4           0  0  0
   -2.7117   -0.0000    2.8129 C   0  0  0  0  0  4           0  0  0
    2.1190    0.0000   -1.4064 C   0  0  0  0  0  4           0  0  0
   -2.1190   -0.0000    1.4064 C   0  0  0  0  0  4           0  0  0
    1.5262    0.0000    0.0000 C   0  0  0  0  0  4           0  0  0
   -0.5927    0.0000    1.4064 C   0  0  0  0  0  4           0  0  0
    0.0000   -0.0000    0.0000 C   0  0  0  0  0  4           0  0  0
  1 10  2  0     0  0
  2 11  2  0     0  0
  3 12  2  0     0  0
  4 10  1  0     0  0
  4 15  1  0     0  0
  5 11  1  0     0  0
  5 14  1  0     0  0
  6 12  1  0     0  0
  6 16  1  0     0  0
  7 13  1  0     0  0
  8 17  1  0     0  0
  9 10  1  0     0  0
  9 18  1  0     0  0
 11 19  1  0     0  0
 12 19  1  0     0  0
 13 14  1  0     0  0
 13 19  2  0     0  0
 14 17  1  0     0  0
 15 20  1  0     0  0
 16 22  1  0     0  0
 18 23  1  0     0  0
 20 21  2  0     0  0
 22 24  1  0     0  0
 23 25  1  0     0  0
 24 26  1  0     0  0
 25 27  1  0     0  0
 26 28  1  0     0  0
 27 29  1  0     0  0
 28 30  1  0     0  0
 29 31  1  0     0  0
 30 32  1  0     0  0
 31 33  1  0     0  0
 32 34  1  0     0  0
 33 35  1  0     0  0
 34 35  1  0     0  0
M  END
> <standard_type>
IC50

> <# Confs.>
25

> <canonical_smiles>
OC([C@@H](CO)O1)=C(C(OCCCCCCCCCCCCCCCCNC(OCC=C)=O)=O)C1=O

> <standard_relation>
=

> <predicted_activity_value>
4.5376020021010435

> <actual_activity_value>
4.640164517660112

> <Compound>
17

> <publication_ID>
nan

> <standard_units>
nM

> hash
23367683470544921

$$$$
17_
XXILIB    08252103493D 0   0.00000     0.00000

 35 35  0     1  0            999 V2000
    8.5297   -2.5479   -5.3986 O   0  0  0  0  0  2           0  0  0
  -13.0054    2.4736    4.1895 O   0  0  0  0  0  2           0  0  0
  -11.1218    0.5296    5.3199 O   0  0  0  0  0  2           0  0  0
    9.1948   -3.2559   -3.3172 O   0  0  0  0  0  2           0  0  0
  -11.8989    4.2307    3.2121 O   0  0  0  0  0  2           0  0  0
   -8.9405    1.1732    4.9482 O   0  0  0  0  0  2           0  0  0
   -8.4309    3.4979    3.6420 O   0  0  0  0  0  2           0  0  0
  -10.5682    3.4716    0.8789 O   0  0  0  0  0  2           0  0  0
    8.4194   -1.1626   -3.5481 N   0  0  0  0  0  3           0  0  0
    8.6990   -2.3425   -4.2006 C   0  0  0  0  0  4           0  0  0
  -11.9714    3.0388    3.8756 C   0  0  0  0  0  4           0  0  0
  -10.2877    1.3035    4.8730 C   0  0  0  0  0  4           0  0  0
   -9.7956    3.4702    3.6339 C   0  0  0  0  0  4           0  0  0
  -10.5266    4.5880    2.9969 C   0  0  1  0  0  4           0  0  0
    9.5284   -4.5343   -3.8739 C   0  0  0  0  0  4           0  0  0
   -8.4711   -0.0000    5.6256 C   0  0  0  0  0  4           0  0  0
  -10.2830    4.7204    1.5021 C   0  0  0  0  0  4           0  0  0
    7.8798    0.0000   -4.2193 C   0  0  0  0  0  4           0  0  0
  -10.6079    2.5489    4.1561 C   0  0  0  0  0  4           0  0  0
   10.0514   -5.4022   -2.7765 C   0  0  0  0  0  4           0  0  0
   11.2759   -5.9408   -2.7670 C   0  0  0  0  0  4           0  0  0
   -6.9496   -0.0000    5.6256 C   0  0  0  0  0  4           0  0  0
    6.3569    0.0000   -4.2193 C   0  0  0  0  0  4           0  0  0
   -6.3569   -0.0000    4.2193 C   0  0  0  0  0  4           0  0  0
    5.7642    0.0000   -2.8129 C   0  0  0  0  0  4           0  0  0
   -4.8307   -0.0000    4.2193 C   0  0  0  0  0  4           0  0  0
    4.2380    0.0000   -2.8129 C   0  0  0  0  0  4           0  0  0
   -4.2380   -0.0000    2.8129 C   0  0  0  0  0  4           0  0  0
    3.6452    0.0000   -1.4064 C   0  0  0  0  0  4           0  0  0
   -2.7117   -0.0000    2.8129 C   0  0  0  0  0  4           0  0  0
    2.1190    0.0000   -1.4064 C   0  0  0  0  0  4           0  0  0
   -2.1190   -0.0000    1.4064 C   0  0  0  0  0  4           0  0  0
    1.5262    0.0000    0.0000 C   0  0  0  0  0  4           0  0  0
   -0.5927    0.0000    1.4064 C   0  0  0  0  0  4           0  0  0
    0.0000   -0.0000    0.0000 C   0  0  0  0  0  4           0  0  0
  1 10  2  0     0  0
  2 11  2  0     0  0
  3 12  2  0     0  0
  4 10  1  0     0  0
  4 15  1  0     0  0
  5 11  1  0     0  0
  5 14  1  0     0  0
  6 12  1  0     0  0
  6 16  1  0     0  0
  7 13  1  0     0  0
  8 17  1  0     0  0
  9 10  1  0     0  0
  9 18  1  0     0  0
 11 19  1  0     0  0
 12 19  1  0     0  0
 13 14  1  0     0  0
 13 19  2  0     0  0
 14 17  1  0     0  0
 15 20  1  0     0  0
 16 22  1  0     0  0
 18 23  1  0     0  0
 20 21  2  0     0  0
 22 24  1  0     0  0
 23 25  1  0     0  0
 24 26  1  0     0  0
 25 27  1  0     0  0
 26 28  1  0     0  0
 27 29  1  0     0  0
 28 30  1  0     0  0
 29 31  1  0     0  0
 30 32  1  0     0  0
 31 33  1  0     0  0
 32 34  1  0     0  0
 33 35  1  0     0  0
 34 35  1  0     0  0
M  END
> <standard_type>
IC50

> <# Confs.>
25

> <canonical_smiles>
OC([C@@H](CO)O1)=C(C(OCCCCCCCCCCCCCCCCNC(OCC=C)=O)=O)C1=O

> <standard_relation>
=

> <predicted_activity_value>
4.5376020021010435

> <actual_activity_value>
4.640164517660112

> <Compound>
17

> <publication_ID>
nan

> <standard_units>
nM

> hash
23367683470544921

$$$$
17_
XXILIB    08252103493D 0   0.00000     0.00000

 35 35  0     1  0            999 V2000
    8.5297   -2.5479   -5.3986 O   0  0  0  0  0  2           0  0  0
  -13.0054    0.0069    8.4858 O   0  0  0  0  0  2           0  0  0
  -11.1218   -0.0000    6.2371 O   0  0  0  0  0  2           0  0  0
    9.1948   -3.2559   -3.3172 O   0  0  0  0  0  2           0  0  0
  -11.8989   -0.0252   10.4962 O   0  0  0  0  0  2           0  0  0
   -8.9405   -0.0000    6.9803 O   0  0  0  0  0  2           0  0  0
   -8.4309   -0.0311    9.6466 O   0  0  0  0  0  2           0  0  0
  -10.5682    2.3749   11.0054 O   0  0  0  0  0  2           0  0  0
    8.4194   -1.1626   -3.5481 N   0  0  0  0  0  3           0  0  0
    8.6990   -2.3425   -4.2006 C   0  0  0  0  0  4           0  0  0
  -11.9714   -0.0038    9.1323 C   0  0  0  0  0  4           0  0  0
  -10.2877   -0.0000    7.1307 C   0  0  0  0  0  4           0  0  0
   -9.7956   -0.0102    9.6267 C   0  0  0  0  0  4           0  0  0
  -10.5266   -0.0175   10.9133 C   0  0  1  0  0  4           0  0  0
    9.5284   -4.5343   -3.8739 C   0  0  0  0  0  4           0  0  0
   -8.4711   -0.0000    5.6256 C   0  0  0  0  0  4           0  0  0
  -10.2830    1.2109   11.7754 C   0  0  0  0  0  4           0  0  0
    7.8798    0.0000   -4.2193 C   0  0  0  0  0  4           0  0  0
  -10.6079   -0.0018    8.5678 C   0  0  0  0  0  4           0  0  0
   10.0514   -5.4022   -2.7765 C   0  0  0  0  0  4           0  0  0
   11.2759   -5.9408   -2.7670 C   0  0  0  0  0  4           0  0  0
   -6.9496   -0.0000    5.6256 C   0  0  0  0  0  4           0  0  0
    6.3569    0.0000   -4.2193 C   0  0  0  0  0  4           0  0  0
   -6.3569   -0.0000    4.2193 C   0  0  0  0  0  4           0  0  0
    5.7642    0.0000   -2.8129 C   0  0  0  0  0  4           0  0  0
   -4.8307   -0.0000    4.2193 C   0  0  0  0  0  4           0  0  0
    4.2380    0.0000   -2.8129 C   0  0  0  0  0  4           0  0  0
   -4.2380   -0.0000    2.8129 C   0  0  0  0  0  4           0  0  0
    3.6452    0.0000   -1.4064 C   0  0  0  0  0  4           0  0  0
   -2.7117   -0.0000    2.8129 C   0  0  0  0  0  4           0  0  0
    2.1190    0.0000   -1.4064 C   0  0  0  0  0  4           0  0  0
   -2.1190   -0.0000    1.4064 C   0  0  0  0  0  4           0  0  0
    1.5262    0.0000    0.0000 C   0  0  0  0  0  4           0  0  0
   -0.5927    0.0000    1.4064 C   0  0  0  0  0  4           0  0  0
    0.0000   -0.0000    0.0000 C   0  0  0  0  0  4           0  0  0
  1 10  2  0     0  0
  2 11  2  0     0  0
  3 12  2  0     0  0
  4 10  1  0     0  0
  4 15  1  0     0  0
  5 11  1  0     0  0
  5 14  1  0     0  0
  6 12  1  0     0  0
  6 16  1  0     0  0
  7 13  1  0     0  0
  8 17  1  0     0  0
  9 10  1  0     0  0
  9 18  1  0     0  0
 11 19  1  0     0  0
 12 19  1  0     0  0
 13 14  1  0     0  0
 13 19  2  0     0  0
 14 17  1  0     0  0
 15 20  1  0     0  0
 16 22  1  0     0  0
 18 23  1  0     0  0
 20 21  2  0     0  0
 22 24  1  0     0  0
 23 25  1  0     0  0
 24 26  1  0     0  0
 25 27  1  0     0  0
 26 28  1  0     0  0
 27 29  1  0     0  0
 28 30  1  0     0  0
 29 31  1  0     0  0
 30 32  1  0     0  0
 31 33  1  0     0  0
 32 34  1  0     0  0
 33 35  1  0     0  0
 34 35  1  0     0  0
M  END
> <standard_type>
IC50

> <# Confs.>
25

> <canonical_smiles>
OC([C@@H](CO)O1)=C(C(OCCCCCCCCCCCCCCCCNC(OCC=C)=O)=O)C1=O

> <standard_relation>
=

> <predicted_activity_value>
4.5376020021010435

> <actual_activity_value>
4.640164517660112

> <Compound>
17

> <publication_ID>
nan

> <standard_units>
nM

> hash
23367683470544921

$$$$
17_
XXILIB    08252103493D 0   0.00000     0.00000

 35 35  0     1  0            999 V2000
    8.5297   -2.5479   -5.3986 O   0  0  0  0  0  2           0  0  0
  -13.0054   -2.4805    4.2014 O   0  0  0  0  0  2           0  0  0
  -11.1218   -0.5296    5.3199 O   0  0  0  0  0  2           0  0  0
    9.1948   -3.2559   -3.3172 O   0  0  0  0  0  2           0  0  0
  -11.8989   -4.2055    3.1685 O   0  0  0  0  0  2           0  0  0
   -8.9405   -1.1732    4.9482 O   0  0  0  0  0  2           0  0  0
   -8.4309   -3.4668    3.5882 O   0  0  0  0  0  2           0  0  0
  -10.5682   -5.8465    4.9924 O   0  0  0  0  0  2           0  0  0
    8.4194   -1.1626   -3.5481 N   0  0  0  0  0  3           0  0  0
    8.6990   -2.3425   -4.2006 C   0  0  0  0  0  4           0  0  0
  -11.9714   -3.0350    3.8689 C   0  0  0  0  0  4           0  0  0
  -10.2877   -1.3035    4.8730 C   0  0  0  0  0  4           0  0  0
   -9.7956   -3.4600    3.6162 C   0  0  0  0  0  4           0  0  0
  -10.5266   -4.5705    2.9666 C   0  0  1  0  0  4           0  0  0
    9.5284   -4.5343   -3.8739 C   0  0  0  0  0  4           0  0  0
   -8.4711   -0.0000    5.6256 C   0  0  0  0  0  4           0  0  0
  -10.2830   -5.9313    3.5993 C   0  0  0  0  0  4           0  0  0
    7.8798    0.0000   -4.2193 C   0  0  0  0  0  4           0  0  0
  -10.6079   -2.5471    4.1529 C   0  0  0  0  0  4           0  0  0
   10.0514   -5.4022   -2.7765 C   0  0  0  0  0  4           0  0  0
   11.2759   -5.9408   -2.7670 C   0  0  0  0  0  4           0  0  0
   -6.9496   -0.0000    5.6256 C   0  0  0  0  0  4           0  0  0
    6.3569    0.0000   -4.2193 C   0  0  0  0  0  4           0  0  0
   -6.3569   -0.0000    4.2193 C   0  0  0  0  0  4           0  0  0
    5.7642    0.0000   -2.8129 C   0  0  0  0  0  4           0  0  0
   -4.8307   -0.0000    4.2193 C   0  0  0  0  0  4           0  0  0
    4.2380    0.0000   -2.8129 C   0  0  0  0  0  4           0  0  0
   -4.2380   -0.0000    2.8129 C   0  0  0  0  0  4           0  0  0
    3.6452    0.0000   -1.4064 C   0  0  0  0  0  4           0  0  0
   -2.7117   -0.0000    2.8129 C   0  0  0  0  0  4           0  0  0
    2.1190    0.0000   -1.4064 C   0  0  0  0  0  4           0  0  0
   -2.1190   -0.0000    1.4064 C   0  0  0  0  0  4           0  0  0
    1.5262    0.0000    0.0000 C   0  0  0  0  0  4           0  0  0
   -0.5927    0.0000    1.4064 C   0  0  0  0  0  4           0  0  0
    0.0000   -0.0000    0.0000 C   0  0  0  0  0  4           0  0  0
  1 10  2  0     0  0
  2 11  2  0     0  0
  3 12  2  0     0  0
  4 10  1  0     0  0
  4 15  1  0     0  0
  5 11  1  0     0  0
  5 14  1  0     0  0
  6 12  1  0     0  0
  6 16  1  0     0  0
  7 13  1  0     0  0
  8 17  1  0     0  0
  9 10  1  0     0  0
  9 18  1  0     0  0
 11 19  1  0     0  0
 12 19  1  0     0  0
 13 14  1  0     0  0
 13 19  2  0     0  0
 14 17  1  0     0  0
 15 20  1  0     0  0
 16 22  1  0     0  0
 18 23  1  0     0  0
 20 21  2  0     0  0
 22 24  1  0     0  0
 23 25  1  0     0  0
 24 26  1  0     0  0
 25 27  1  0     0  0
 26 28  1  0     0  0
 27 29  1  0     0  0
 28 30  1  0     0  0
 29 31  1  0     0  0
 30 32  1  0     0  0
 31 33  1  0     0  0
 32 34  1  0     0  0
 33 35  1  0     0  0
 34 35  1  0     0  0
M  END
> <standard_type>
IC50

> <# Confs.>
25

> <canonical_smiles>
OC([C@@H](CO)O1)=C(C(OCCCCCCCCCCCCCCCCNC(OCC=C)=O)=O)C1=O

> <standard_relation>
=

> <predicted_activity_value>
4.5376020021010435

> <actual_activity_value>
4.640164517660112

> <Compound>
17

> <publication_ID>
nan

> <standard_units>
nM

> hash
23367683470544921

$$$$
17_
XXILIB    08252103493D 0   0.00000     0.00000

 35 35  0     1  0            999 V2000
    8.5297    2.2952   -5.8362 O   0  0  0  0  0  2           0  0  0
  -13.0054    2.4736    4.1895 O   0  0  0  0  0  2           0  0  0
  -11.1218    0.5296    5.3199 O   0  0  0  0  0  2           0  0  0
    9.1948    0.8467   -7.4901 O   0  0  0  0  0  2           0  0  0
  -11.8989    4.2307    3.2121 O   0  0  0  0  0  2           0  0  0
   -8.9405    1.1732    4.9482 O   0  0  0  0  0  2           0  0  0
   -8.4309    3.4979    3.6420 O   0  0  0  0  0  2           0  0  0
  -10.5682    3.4716    0.8789 O   0  0  0  0  0  2           0  0  0
    8.4194    0.0000   -5.5618 N   0  0  0  0  0  3           0  0  0
    8.6990    1.1550   -6.2574 C   0  0  0  0  0  4           0  0  0
  -11.9714    3.0388    3.8756 C   0  0  0  0  0  4           0  0  0
  -10.2877    1.3035    4.8730 C   0  0  0  0  0  4           0  0  0
   -9.7956    3.4702    3.6339 C   0  0  0  0  0  4           0  0  0
  -10.5266    4.5880    2.9969 C   0  0  1  0  0  4           0  0  0
    9.5284    1.9680   -8.3189 C   0  0  0  0  0  4           0  0  0
   -8.4711   -0.0000    5.6256 C   0  0  0  0  0  4           0  0  0
  -10.2830    4.7204    1.5021 C   0  0  0  0  0  4           0  0  0
    7.8798    0.0000   -4.2193 C   0  0  0  0  0  4           0  0  0
  -10.6079    2.5489    4.1561 C   0  0  0  0  0  4           0  0  0
   10.0514    1.4515   -9.6192 C   0  0  0  0  0  4           0  0  0
   11.2759    1.7127  -10.0904 C   0  0  0  0  0  4           0  0  0
   -6.9496   -0.0000    5.6256 C   0  0  0  0  0  4           0  0  0
    6.3569    0.0000   -4.2193 C   0  0  0  0  0  4           0  0  0
   -6.3569   -0.0000    4.2193 C   0  0  0  0  0  4           0  0  0
    5.7642    0.0000   -2.8129 C   0  0  0  0  0  4           0  0  0
   -4.8307   -0.0000    4.2193 C   0  0  0  0  0  4           0  0  0
    4.2380    0.0000   -2.8129 C   0  0  0  0  0  4           0  0  0
   -4.2380   -0.0000    2.8129 C   0  0  0  0  0  4           0  0  0
    3.6452    0.0000   -1.4064 C   0  0  0  0  0  4           0  0  0
   -2.7117   -0.0000    2.8129 C   0  0  0  0  0  4           0  0  0
    2.1190    0.0000   -1.4064 C   0  0  0  0  0  4           0  0  0
   -2.1190   -0.0000    1.4064 C   0  0  0  0  0  4           0  0  0
    1.5262    0.0000    0.0000 C   0  0  0  0  0  4           0  0  0
   -0.5927    0.0000    1.4064 C   0  0  0  0  0  4           0  0  0
    0.0000   -0.0000    0.0000 C   0  0  0  0  0  4           0  0  0
  1 10  2  0     0  0
  2 11  2  0     0  0
  3 12  2  0     0  0
  4 10  1  0     0  0
  4 15  1  0     0  0
  5 11  1  0     0  0
  5 14  1  0     0  0
  6 12  1  0     0  0
  6 16  1  0     0  0
  7 13  1  0     0  0
  8 17  1  0     0  0
  9 10  1  0     0  0
  9 18  1  0     0  0
 11 19  1  0     0  0
 12 19  1  0     0  0
 13 14  1  0     0  0
 13 19  2  0     0  0
 14 17  1  0     0  0
 15 20  1  0     0  0
 16 22  1  0     0  0
 18 23  1  0     0  0
 20 21  2  0     0  0
 22 24  1  0     0  0
 23 25  1  0     0  0
 24 26  1  0     0  0
 25 27  1  0     0  0
 26 28  1  0     0  0
 27 29  1  0     0  0
 28 30  1  0     0  0
 29 31  1  0     0  0
 30 32  1  0     0  0
 31 33  1  0     0  0
 32 34  1  0     0  0
 33 35  1  0     0  0
 34 35  1  0     0  0
M  END
> <standard_type>
IC50

> <# Confs.>
25

> <canonical_smiles>
OC([C@@H](CO)O1)=C(C(OCCCCCCCCCCCCCCCCNC(OCC=C)=O)=O)C1=O

> <standard_relation>
=

> <predicted_activity_value>
4.5376020021010435

> <actual_activity_value>
4.640164517660112

> <Compound>
17

> <publication_ID>
nan

> <standard_units>
nM

> hash
23367683470544921

$$$$
17_
XXILIB    08252103493D 0   0.00000     0.00000

 35 35  0     1  0            999 V2000
    8.5297    2.2952   -5.8362 O   0  0  0  0  0  2           0  0  0
  -13.0054    0.0069    8.4858 O   0  0  0  0  0  2           0  0  0
  -11.1218   -0.0000    6.2371 O   0  0  0  0  0  2           0  0  0
    9.1948    0.8467   -7.4901 O   0  0  0  0  0  2           0  0  0
  -11.8989   -0.0252   10.4962 O   0  0  0  0  0  2           0  0  0
   -8.9405   -0.0000    6.9803 O   0  0  0  0  0  2           0  0  0
   -8.4309   -0.0311    9.6466 O   0  0  0  0  0  2           0  0  0
  -10.5682    2.3749   11.0054 O   0  0  0  0  0  2           0  0  0
    8.4194    0.0000   -5.5618 N   0  0  0  0  0  3           0  0  0
    8.6990    1.1550   -6.2574 C   0  0  0  0  0  4           0  0  0
  -11.9714   -0.0038    9.1323 C   0  0  0  0  0  4           0  0  0
  -10.2877   -0.0000    7.1307 C   0  0  0  0  0  4           0  0  0
   -9.7956   -0.0102    9.6267 C   0  0  0  0  0  4           0  0  0
  -10.5266   -0.0175   10.9133 C   0  0  1  0  0  4           0  0  0
    9.5284    1.9680   -8.3189 C   0  0  0  0  0  4           0  0  0
   -8.4711   -0.0000    5.6256 C   0  0  0  0  0  4           0  0  0
  -10.2830    1.2109   11.7754 C   0  0  0  0  0  4           0  0  0
    7.8798    0.0000   -4.2193 C   0  0  0  0  0  4           0  0  0
  -10.6079   -0.0018    8.5678 C   0  0  0  0  0  4           0  0  0
   10.0514    1.4515   -9.6192 C   0  0  0  0  0  4           0  0  0
   11.2759    1.7127  -10.0904 C   0  0  0  0  0  4           0  0  0
   -6.9496   -0.0000    5.6256 C   0  0  0  0  0  4           0  0  0
    6.3569    0.0000   -4.2193 C   0  0  0  0  0  4           0  0  0
   -6.3569   -0.0000    4.2193 C   0  0  0  0  0  4           0  0  0
    5.7642    0.0000   -2.8129 C   0  0  0  0  0  4           0  0  0
   -4.8307   -0.0000    4.2193 C   0  0  0  0  0  4           0  0  0
    4.2380    0.0000   -2.8129 C   0  0  0  0  0  4           0  0  0
   -4.2380   -0.0000    2.8129 C   0  0  0  0  0  4           0  0  0
    3.6452    0.0000   -1.4064 C   0  0  0  0  0  4           0  0  0
   -2.7117   -0.0000    2.8129 C   0  0  0  0  0  4           0  0  0
    2.1190    0.0000   -1.4064 C   0  0  0  0  0  4           0  0  0
   -2.1190   -0.0000    1.4064 C   0  0  0  0  0  4           0  0  0
    1.5262    0.0000    0.0000 C   0  0  0  0  0  4           0  0  0
   -0.5927    0.0000    1.4064 C   0  0  0  0  0  4           0  0  0
    0.0000   -0.0000    0.0000 C   0  0  0  0  0  4           0  0  0
  1 10  2  0     0  0
  2 11  2  0     0  0
  3 12  2  0     0  0
  4 10  1  0     0  0
  4 15  1  0     0  0
  5 11  1  0     0  0
  5 14  1  0     0  0
  6 12  1  0     0  0
  6 16  1  0     0  0
  7 13  1  0     0  0
  8 17  1  0     0  0
  9 10  1  0     0  0
  9 18  1  0     0  0
 11 19  1  0     0  0
 12 19  1  0     0  0
 13 14  1  0     0  0
 13 19  2  0     0  0
 14 17  1  0     0  0
 15 20  1  0     0  0
 16 22  1  0     0  0
 18 23  1  0     0  0
 20 21  2  0     0  0
 22 24  1  0     0  0
 23 25  1  0     0  0
 24 26  1  0     0  0
 25 27  1  0     0  0
 26 28  1  0     0  0
 27 29  1  0     0  0
 28 30  1  0     0  0
 29 31  1  0     0  0
 30 32  1  0     0  0
 31 33  1  0     0  0
 32 34  1  0     0  0
 33 35  1  0     0  0
 34 35  1  0     0  0
M  END
> <standard_type>
IC50

> <# Confs.>
25

> <canonical_smiles>
OC([C@@H](CO)O1)=C(C(OCCCCCCCCCCCCCCCCNC(OCC=C)=O)=O)C1=O

> <standard_relation>
=

> <predicted_activity_value>
4.5376020021010435

> <actual_activity_value>
4.640164517660112

> <Compound>
17

> <publication_ID>
nan

> <standard_units>
nM

> hash
23367683470544921

$$$$
17_
XXILIB    08252103493D 0   0.00000     0.00000

 35 35  0     1  0            999 V2000
    8.5297    2.5479   -5.3986 O   0  0  0  0  0  2           0  0  0
  -13.0054    2.4736    4.1895 O   0  0  0  0  0  2           0  0  0
  -11.1218    0.5296    5.3199 O   0  0  0  0  0  2           0  0  0
    9.1942    3.2561   -3.3171 O   0  0  0  0  0  2           0  0  0
  -11.8989    4.2307    3.2121 O   0  0  0  0  0  2           0  0  0
   -8.9405    1.1732    4.9482 O   0  0  0  0  0  2           0  0  0
   -8.4309    3.4979    3.6420 O   0  0  0  0  0  2           0  0  0
  -10.5682    3.4716    0.8789 O   0  0  0  0  0  2           0  0  0
    8.4194    1.1626   -3.5481 N   0  0  0  0  0  3           0  0  0
    8.6990    2.3425   -4.2006 C   0  0  0  0  0  4           0  0  0
  -11.9714    3.0388    3.8756 C   0  0  0  0  0  4           0  0  0
  -10.2877    1.3035    4.8730 C   0  0  0  0  0  4           0  0  0
   -9.7956    3.4702    3.6339 C   0  0  0  0  0  4           0  0  0
  -10.5266    4.5880    2.9969 C   0  0  1  0  0  4           0  0  0
    9.5270    4.5348   -3.8736 C   0  0  0  0  0  4           0  0  0
   -8.4711   -0.0000    5.6256 C   0  0  0  0  0  4           0  0  0
  -10.2830    4.7204    1.5021 C   0  0  0  0  0  4           0  0  0
    7.8798    0.0000   -4.2193 C   0  0  0  0  0  4           0  0  0
  -10.6079    2.5489    4.1561 C   0  0  0  0  0  4           0  0  0
   10.0494    5.4028   -2.7761 C   0  0  0  0  0  4           0  0  0
    9.4917    6.5619   -2.4085 C   0  0  0  0  0  4           0  0  0
   -6.9496   -0.0000    5.6256 C   0  0  0  0  0  4           0  0  0
    6.3569    0.0000   -4.2193 C   0  0  0  0  0  4           0  0  0
   -6.3569   -0.0000    4.2193 C   0  0  0  0  0  4           0  0  0
    5.7642    0.0000   -2.8129 C   0  0  0  0  0  4           0  0  0
   -4.8307   -0.0000    4.2193 C   0  0  0  0  0  4           0  0  0
    4.2380    0.0000   -2.8129 C   0  0  0  0  0  4           0  0  0
   -4.2380   -0.0000    2.8129 C   0  0  0  0  0  4           0  0  0
    3.6452    0.0000   -1.4064 C   0  0  0  0  0  4           0  0  0
   -2.7117   -0.0000    2.8129 C   0  0  0  0  0  4           0  0  0
    2.1190    0.0000   -1.4064 C   0  0  0  0  0  4           0  0  0
   -2.1190   -0.0000    1.4064 C   0  0  0  0  0  4           0  0  0
    1.5262    0.0000    0.0000 C   0  0  0  0  0  4           0  0  0
   -0.5927    0.0000    1.4064 C   0  0  0  0  0  4           0  0  0
    0.0000   -0.0000    0.0000 C   0  0  0  0  0  4           0  0  0
  1 10  2  0     0  0
  2 11  2  0     0  0
  3 12  2  0     0  0
  4 10  1  0     0  0
  4 15  1  0     0  0
  5 11  1  0     0  0
  5 14  1  0     0  0
  6 12  1  0     0  0
  6 16  1  0     0  0
  7 13  1  0     0  0
  8 17  1  0     0  0
  9 10  1  0     0  0
  9 18  1  0     0  0
 11 19  1  0     0  0
 12 19  1  0     0  0
 13 14  1  0     0  0
 13 19  2  0     0  0
 14 17  1  0     0  0
 15 20  1  0     0  0
 16 22  1  0     0  0
 18 23  1  0     0  0
 20 21  2  0     0  0
 22 24  1  0     0  0
 23 25  1  0     0  0
 24 26  1  0     0  0
 25 27  1  0     0  0
 26 28  1  0     0  0
 27 29  1  0     0  0
 28 30  1  0     0  0
 29 31  1  0     0  0
 30 32  1  0     0  0
 31 33  1  0     0  0
 32 34  1  0     0  0
 33 35  1  0     0  0
 34 35  1  0     0  0
M  END
> <standard_type>
IC50

> <# Confs.>
25

> <canonical_smiles>
OC([C@@H](CO)O1)=C(C(OCCCCCCCCCCCCCCCCNC(OCC=C)=O)=O)C1=O

> <standard_relation>
=

> <predicted_activity_value>
4.5376020021010435

> <actual_activity_value>
4.640164517660112

> <Compound>
17

> <publication_ID>
nan

> <standard_units>
nM

> hash
23367683470544921

$$$$
17_
XXILIB    08252103493D 0   0.00000     0.00000

 35 35  0     1  0            999 V2000
    8.5297    2.5479   -5.3986 O   0  0  0  0  0  2           0  0  0
  -13.0054    0.0069    8.4858 O   0  0  0  0  0  2           0  0  0
  -11.1218   -0.0000    6.2371 O   0  0  0  0  0  2           0  0  0
    9.1942    3.2561   -3.3171 O   0  0  0  0  0  2           0  0  0
  -11.8989   -0.0252   10.4962 O   0  0  0  0  0  2           0  0  0
   -8.9405   -0.0000    6.9803 O   0  0  0  0  0  2           0  0  0
   -8.4309   -0.0311    9.6466 O   0  0  0  0  0  2           0  0  0
  -10.5682    2.3749   11.0054 O   0  0  0  0  0  2           0  0  0
    8.4194    1.1626   -3.5481 N   0  0  0  0  0  3           0  0  0
    8.6990    2.3425   -4.2006 C   0  0  0  0  0  4           0  0  0
  -11.9714   -0.0038    9.1323 C   0  0  0  0  0  4           0  0  0
  -10.2877   -0.0000    7.1307 C   0  0  0  0  0  4           0  0  0
   -9.7956   -0.0102    9.6267 C   0  0  0  0  0  4           0  0  0
  -10.5266   -0.0175   10.9133 C   0  0  1  0  0  4           0  0  0
    9.5270    4.5348   -3.8736 C   0  0  0  0  0  4           0  0  0
   -8.4711   -0.0000    5.6256 C   0  0  0  0  0  4           0  0  0
  -10.2830    1.2109   11.7754 C   0  0  0  0  0  4           0  0  0
    7.8798    0.0000   -4.2193 C   0  0  0  0  0  4           0  0  0
  -10.6079   -0.0018    8.5678 C   0  0  0  0  0  4           0  0  0
   10.0494    5.4028   -2.7761 C   0  0  0  0  0  4           0  0  0
    9.4917    6.5619   -2.4085 C   0  0  0  0  0  4           0  0  0
   -6.9496   -0.0000    5.6256 C   0  0  0  0  0  4           0  0  0
    6.3569    0.0000   -4.2193 C   0  0  0  0  0  4           0  0  0
   -6.3569   -0.0000    4.2193 C   0  0  0  0  0  4           0  0  0
    5.7642    0.0000   -2.8129 C   0  0  0  0  0  4           0  0  0
   -4.8307   -0.0000    4.2193 C   0  0  0  0  0  4           0  0  0
    4.2380    0.0000   -2.8129 C   0  0  0  0  0  4           0  0  0
   -4.2380   -0.0000    2.8129 C   0  0  0  0  0  4           0  0  0
    3.6452    0.0000   -1.4064 C   0  0  0  0  0  4           0  0  0
   -2.7117   -0.0000    2.8129 C   0  0  0  0  0  4           0  0  0
    2.1190    0.0000   -1.4064 C   0  0  0  0  0  4           0  0  0
   -2.1190   -0.0000    1.4064 C   0  0  0  0  0  4           0  0  0
    1.5262    0.0000    0.0000 C   0  0  0  0  0  4           0  0  0
   -0.5927    0.0000    1.4064 C   0  0  0  0  0  4           0  0  0
    0.0000   -0.0000    0.0000 C   0  0  0  0  0  4           0  0  0
  1 10  2  0     0  0
  2 11  2  0     0  0
  3 12  2  0     0  0
  4 10  1  0     0  0
  4 15  1  0     0  0
  5 11  1  0     0  0
  5 14  1  0     0  0
  6 12  1  0     0  0
  6 16  1  0     0  0
  7 13  1  0     0  0
  8 17  1  0     0  0
  9 10  1  0     0  0
  9 18  1  0     0  0
 11 19  1  0     0  0
 12 19  1  0     0  0
 13 14  1  0     0  0
 13 19  2  0     0  0
 14 17  1  0     0  0
 15 20  1  0     0  0
 16 22  1  0     0  0
 18 23  1  0     0  0
 20 21  2  0     0  0
 22 24  1  0     0  0
 23 25  1  0     0  0
 24 26  1  0     0  0
 25 27  1  0     0  0
 26 28  1  0     0  0
 27 29  1  0     0  0
 28 30  1  0     0  0
 29 31  1  0     0  0
 30 32  1  0     0  0
 31 33  1  0     0  0
 32 34  1  0     0  0
 33 35  1  0     0  0
 34 35  1  0     0  0
M  END
> <standard_type>
IC50

> <# Confs.>
25

> <canonical_smiles>
OC([C@@H](CO)O1)=C(C(OCCCCCCCCCCCCCCCCNC(OCC=C)=O)=O)C1=O

> <standard_relation>
=

> <predicted_activity_value>
4.5376020021010435

> <actual_activity_value>
4.640164517660112

> <Compound>
17

> <publication_ID>
nan

> <standard_units>
nM

> hash
23367683470544921

$$$$
10_
XXILIB    08252103493D 0   0.00000     0.00000

 37 39  0     1  0            999 V2000
  -15.4096    1.3700    7.9128 Cl  0  0  0  0  0  1           0  0  0
  -16.3297    0.0169    5.4494 F   0  0  0  0  0  1           0  0  0
  -10.5815    0.0132    8.4338 O   0  0  0  0  0  2           0  0  0
  -10.1005    0.0213    3.7582 O   0  0  0  0  0  2           0  0  0
   -7.0213   -0.0000    3.0305 O   0  0  0  0  0  2           0  0  0
   -7.5360    0.0140    7.4813 N   0  0  0  0  0  3           0  0  0
   -6.5550    0.0080    6.5467 N   0  0  0  0  0  3           0  0  0
  -10.7928    0.0161    6.0509 N   0  0  1  0  0  3           0  0  0
  -14.4197    0.6200    6.7194 C   0  0  0  0  0  4           0  0  0
  -14.9976    0.0196    5.6064 C   0  0  0  0  0  4           0  0  0
   -8.7607    0.0147    6.9240 C   0  0  0  0  0  4           0  0  0
   -7.2076    0.0081    5.3619 C   0  0  0  0  0  4           0  0  0
  -12.2071    0.0148    5.9043 C   0  0  0  0  0  4           0  0  0
   -8.5922    0.0141    5.5747 C   0  0  0  0  0  4           0  0  0
  -13.0306    0.6172    6.8728 C   0  0  0  0  0  4           0  0  0
  -14.2029   -0.5854    4.6405 C   0  0  0  0  0  4           0  0  0
  -12.8135   -0.5872    4.7875 C   0  0  0  0  0  4           0  0  0
  -10.1343    0.0150    7.2983 C   0  0  0  0  0  4           0  0  0
   -9.8921    0.0174    4.9601 C   0  0  0  0  0  4           0  0  0
   -6.4484   -0.0000    4.1199 C   0  0  0  0  0  4           0  0  0
   -4.9359   -0.0000    4.1791 C   0  0  0  0  0  4           0  0  0
   -4.3090   -0.0000    2.7860 C   0  0  0  0  0  4           0  0  0
   -2.7814   -0.0000    2.7860 C   0  0  0  0  0  4           0  0  0
   -2.1545   -0.0000    1.3930 C   0  0  0  0  0  4           0  0  0
   -0.6269    0.0000    1.3930 C   0  0  0  0  0  4           0  0  0
    0.0000   -0.0000    0.0000 C   0  0  0  0  0  4           0  0  0
    1.5277    0.0000    0.0000 C   0  0  0  0  0  4           0  0  0
    2.1547    0.0000   -1.3930 C   0  0  0  0  0  4           0  0  0
    3.6822    0.0000   -1.3930 C   0  0  0  0  0  4           0  0  0
    4.3091    0.0000   -2.7860 C   0  0  0  0  0  4           0  0  0
    5.8367    0.0000   -2.7860 C   0  0  0  0  0  4           0  0  0
    6.4636    0.0000   -4.1790 C   0  0  0  0  0  4           0  0  0
    7.9912    0.0000   -4.1790 C   0  0  0  0  0  4           0  0  0
    8.6181    0.0000   -5.5719 C   0  0  0  0  0  4           0  0  0
   10.1456    0.0000   -5.5719 C   0  0  0  0  0  4           0  0  0
   10.7726    0.0000   -6.9649 C   0  0  0  0  0  4           0  0  0
   12.2908    0.0000   -6.8900 C   0  0  0  0  0  4           0  0  0
  1  9  1  0     0  0
  2 10  1  0     0  0
  3 18  2  0     0  0
  4 19  2  0     0  0
  5 20  2  0     0  0
  6  7  1  0     0  0
  6 11  1  0     0  0
  7 12  2  0     0  0
  8 13  1  0     0  0
  8 18  1  0     0  0
  8 19  1  0     0  0
  9 10  1  0     0  0
  9 15  2  0     0  0
 10 16  2  0     0  0
 11 14  2  0     0  0
 11 18  1  0     0  0
 12 14  1  0     0  0
 12 20  1  0     0  0
 13 15  1  0     0  0
 13 17  2  0     0  0
 14 19  1  0     0  0
 16 17  1  0     0  0
 20 21  1  0     0  0
 21 22  1  0     0  0
 22 23  1  0     0  0
 23 24  1  0     0  0
 24 25  1  0     0  0
 25 26  1  0     0  0
 26 27  1  0     0  0
 27 28  1  0     0  0
 28 29  1  0     0  0
 29 30  1  0     0  0
 30 31  1  0     0  0
 31 32  1  0     0  0
 32 33  1  0     0  0
 33 34  1  0     0  0
 34 35  1  0     0  0
 35 36  1  0     0  0
 36 37  1  0     0  0
M  END
> <standard_type>
IC50

> <# Confs.>
25

> <canonical_smiles>
O=C1C2=C(C(C(CCCCCCCCCCCCCCCCC)=O)=NN2)C(N1C3=CC=C(F)C(Cl)=C3)=O

> <standard_relation>
=

> <predicted_activity_value>
5.5376020021010435

> <actual_activity_value>
5.939302159646388

> <Compound>
10

> <publication_ID>
nan

> <standard_units>
nM

> hash
15431654101533179008

$$$$
10_
XXILIB    08252103493D 0   0.00000     0.00000

 37 39  0     1  0            999 V2000
  -15.4084   -1.3249    7.9250 Cl  0  0  0  0  0  1           0  0  0
  -16.3316    0.0379    5.4683 F   0  0  0  0  0  1           0  0  0
  -10.5815    0.0132    8.4338 O   0  0  0  0  0  2           0  0  0
  -10.1005    0.0213    3.7582 O   0  0  0  0  0  2           0  0  0
   -7.0213   -0.0000    3.0305 O   0  0  0  0  0  2           0  0  0
   -7.5360    0.0140    7.4813 N   0  0  0  0  0  3           0  0  0
   -6.5550    0.0080    6.5467 N   0  0  0  0  0  3           0  0  0
  -10.7928    0.0161    6.0509 N   0  0  1  0  0  3           0  0  0
  -14.4193   -0.5831    6.7259 C   0  0  0  0  0  4           0  0  0
  -14.9987    0.0236    5.6171 C   0  0  0  0  0  4           0  0  0
   -8.7607    0.0147    6.9240 C   0  0  0  0  0  4           0  0  0
   -7.2076    0.0081    5.3619 C   0  0  0  0  0  4           0  0  0
  -12.2071    0.0148    5.9043 C   0  0  0  0  0  4           0  0  0
   -8.5922    0.0141    5.5747 C   0  0  0  0  0  4           0  0  0
  -13.0293   -0.5920    6.8711 C   0  0  0  0  0  4           0  0  0
  -14.2048    0.6243    4.6480 C   0  0  0  0  0  4           0  0  0
  -12.8149    0.6214    4.7908 C   0  0  0  0  0  4           0  0  0
  -10.1343    0.0150    7.2983 C   0  0  0  0  0  4           0  0  0
   -9.8921    0.0174    4.9601 C   0  0  0  0  0  4           0  0  0
   -6.4484   -0.0000    4.1199 C   0  0  0  0  0  4           0  0  0
   -4.9359   -0.0000    4.1791 C   0  0  0  0  0  4           0  0  0
   -4.3090   -0.0000    2.7860 C   0  0  0  0  0  4           0  0  0
   -2.7814   -0.0000    2.7860 C   0  0  0  0  0  4           0  0  0
   -2.1545   -0.0000    1.3930 C   0  0  0  0  0  4           0  0  0
   -0.6269    0.0000    1.3930 C   0  0  0  0  0  4           0  0  0
    0.0000   -0.0000    0.0000 C   0  0  0  0  0  4           0  0  0
    1.5277    0.0000    0.0000 C   0  0  0  0  0  4           0  0  0
    2.1547    0.0000   -1.3930 C   0  0  0  0  0  4           0  0  0
    3.6822    0.0000   -1.3930 C   0  0  0  0  0  4           0  0  0
    4.3091    0.0000   -2.7860 C   0  0  0  0  0  4           0  0  0
    5.8367    0.0000   -2.7860 C   0  0  0  0  0  4           0  0  0
    6.4636    0.0000   -4.1790 C   0  0  0  0  0  4           0  0  0
    7.9912    0.0000   -4.1790 C   0  0  0  0  0  4           0  0  0
    8.6181    0.0000   -5.5719 C   0  0  0  0  0  4           0  0  0
   10.1456    0.0000   -5.5719 C   0  0  0  0  0  4           0  0  0
   10.7726    0.0000   -6.9649 C   0  0  0  0  0  4           0  0  0
   12.2908    0.0000   -6.8900 C   0  0  0  0  0  4           0  0  0
  1  9  1  0     0  0
  2 10  1  0     0  0
  3 18  2  0     0  0
  4 19  2  0     0  0
  5 20  2  0     0  0
  6  7  1  0     0  0
  6 11  1  0     0  0
  7 12  2  0     0  0
  8 13  1  0     0  0
  8 18  1  0     0  0
  8 19  1  0     0  0
  9 10  1  0     0  0
  9 15  2  0     0  0
 10 16  2  0     0  0
 11 14  2  0     0  0
 11 18  1  0     0  0
 12 14  1  0     0  0
 12 20  1  0     0  0
 13 15  1  0     0  0
 13 17  2  0     0  0
 14 19  1  0     0  0
 16 17  1  0     0  0
 20 21  1  0     0  0
 21 22  1  0     0  0
 22 23  1  0     0  0
 23 24  1  0     0  0
 24 25  1  0     0  0
 25 26  1  0     0  0
 26 27  1  0     0  0
 27 28  1  0     0  0
 28 29  1  0     0  0
 29 30  1  0     0  0
 30 31  1  0     0  0
 31 32  1  0     0  0
 32 33  1  0     0  0
 33 34  1  0     0  0
 34 35  1  0     0  0
 35 36  1  0     0  0
 36 37  1  0     0  0
M  END
> <standard_type>
IC50

> <# Confs.>
25

> <canonical_smiles>
O=C1C2=C(C(C(CCCCCCCCCCCCCCCCC)=O)=NN2)C(N1C3=CC=C(F)C(Cl)=C3)=O

> <standard_relation>
=

> <predicted_activity_value>
5.5376020021010435

> <actual_activity_value>
5.939302159646388

> <Compound>
10

> <publication_ID>
nan

> <standard_units>
nM

> hash
15431654101533179008

$$$$
10_
XXILIB    08252103493D 0   0.00000     0.00000

 37 39  0     1  0            999 V2000
  -14.9274   -1.3458    3.2823 Cl  0  0  0  0  0  1           0  0  0
  -16.3353    0.0051    5.5044 F   0  0  0  0  0  1           0  0  0
  -10.5815    0.0132    8.4338 O   0  0  0  0  0  2           0  0  0
  -10.1005    0.0213    3.7582 O   0  0  0  0  0  2           0  0  0
   -7.0213   -0.0000    3.0305 O   0  0  0  0  0  2           0  0  0
   -7.5360    0.0140    7.4813 N   0  0  0  0  0  3           0  0  0
   -6.5550    0.0080    6.5467 N   0  0  0  0  0  3           0  0  0
  -10.7928    0.0161    6.0509 N   0  0  1  0  0  3           0  0  0
  -14.2045   -0.5943    4.6531 C   0  0  0  0  0  4           0  0  0
  -14.9994    0.0048    5.6239 C   0  0  0  0  0  4           0  0  0
   -8.7607    0.0147    6.9240 C   0  0  0  0  0  4           0  0  0
   -7.2076    0.0081    5.3619 C   0  0  0  0  0  4           0  0  0
  -12.2071    0.0148    5.9043 C   0  0  0  0  0  4           0  0  0
   -8.5922    0.0141    5.5747 C   0  0  0  0  0  4           0  0  0
  -12.8134   -0.5890    4.7878 C   0  0  0  0  0  4           0  0  0
  -14.4207    0.6111    6.7320 C   0  0  0  0  0  4           0  0  0
  -13.0307    0.6154    6.8730 C   0  0  0  0  0  4           0  0  0
  -10.1343    0.0150    7.2983 C   0  0  0  0  0  4           0  0  0
   -9.8921    0.0174    4.9601 C   0  0  0  0  0  4           0  0  0
   -6.4484   -0.0000    4.1199 C   0  0  0  0  0  4           0  0  0
   -4.9359   -0.0000    4.1791 C   0  0  0  0  0  4           0  0  0
   -4.3090   -0.0000    2.7860 C   0  0  0  0  0  4           0  0  0
   -2.7814   -0.0000    2.7860 C   0  0  0  0  0  4           0  0  0
   -2.1545   -0.0000    1.3930 C   0  0  0  0  0  4           0  0  0
   -0.6269    0.0000    1.3930 C   0  0  0  0  0  4           0  0  0
    0.0000   -0.0000    0.0000 C   0  0  0  0  0  4           0  0  0
    1.5277    0.0000    0.0000 C   0  0  0  0  0  4           0  0  0
    2.1547    0.0000   -1.3930 C   0  0  0  0  0  4           0  0  0
    3.6822    0.0000   -1.3930 C   0  0  0  0  0  4           0  0  0
    4.3091    0.0000   -2.7860 C   0  0  0  0  0  4           0  0  0
    5.8367    0.0000   -2.7860 C   0  0  0  0  0  4           0  0  0
    6.4636    0.0000   -4.1790 C   0  0  0  0  0  4           0  0  0
    7.9912    0.0000   -4.1790 C   0  0  0  0  0  4           0  0  0
    8.6181    0.0000   -5.5719 C   0  0  0  0  0  4           0  0  0
   10.1456    0.0000   -5.5719 C   0  0  0  0  0  4           0  0  0
   10.7726    0.0000   -6.9649 C   0  0  0  0  0  4           0  0  0
   12.2908    0.0000   -6.8900 C   0  0  0  0  0  4           0  0  0
  1  9  1  0     0  0
  2 10  1  0     0  0
  3 18  2  0     0  0
  4 19  2  0     0  0
  5 20  2  0     0  0
  6  7  1  0     0  0
  6 11  1  0     0  0
  7 12  2  0     0  0
  8 13  1  0     0  0
  8 18  1  0     0  0
  8 19  1  0     0  0
  9 10  1  0     0  0
  9 15  2  0     0  0
 10 16  2  0     0  0
 11 14  2  0     0  0
 11 18  1  0     0  0
 12 14  1  0     0  0
 12 20  1  0     0  0
 13 15  1  0     0  0
 13 17  2  0     0  0
 14 19  1  0     0  0
 16 17  1  0     0  0
 20 21  1  0     0  0
 21 22  1  0     0  0
 22 23  1  0     0  0
 23 24  1  0     0  0
 24 25  1  0     0  0
 25 26  1  0     0  0
 26 27  1  0     0  0
 27 28  1  0     0  0
 28 29  1  0     0  0
 29 30  1  0     0  0
 30 31  1  0     0  0
 31 32  1  0     0  0
 32 33  1  0     0  0
 33 34  1  0     0  0
 34 35  1  0     0  0
 35 36  1  0     0  0
 36 37  1  0     0  0
M  END
> <standard_type>
IC50

> <# Confs.>
25

> <canonical_smiles>
O=C1C2=C(C(C(CCCCCCCCCCCCCCCCC)=O)=NN2)C(N1C3=CC=C(F)C(Cl)=C3)=O

> <standard_relation>
=

> <predicted_activity_value>
5.5376020021010435

> <actual_activity_value>
5.939302159646388

> <Compound>
10

> <publication_ID>
nan

> <standard_units>
nM

> hash
15431654101533179008

$$$$
10_
XXILIB    08252103493D 0   0.00000     0.00000

 37 39  0     1  0            999 V2000
  -14.9285    1.3490    3.2700 Cl  0  0  0  0  0  1           0  0  0
  -16.3334   -0.0159    5.4856 F   0  0  0  0  0  1           0  0  0
  -10.5815    0.0132    8.4338 O   0  0  0  0  0  2           0  0  0
  -10.1005    0.0213    3.7582 O   0  0  0  0  0  2           0  0  0
   -7.0213   -0.0000    3.0305 O   0  0  0  0  0  2           0  0  0
   -7.5360    0.0140    7.4813 N   0  0  0  0  0  3           0  0  0
   -6.5550    0.0080    6.5467 N   0  0  0  0  0  3           0  0  0
  -10.7928    0.0161    6.0509 N   0  0  1  0  0  3           0  0  0
  -14.2049    0.6089    4.6466 C   0  0  0  0  0  4           0  0  0
  -14.9983    0.0009    5.6131 C   0  0  0  0  0  4           0  0  0
   -8.7607    0.0147    6.9240 C   0  0  0  0  0  4           0  0  0
   -7.2076    0.0081    5.3619 C   0  0  0  0  0  4           0  0  0
  -12.2071    0.0148    5.9043 C   0  0  0  0  0  4           0  0  0
   -8.5922    0.0141    5.5747 C   0  0  0  0  0  4           0  0  0
  -12.8147    0.6203    4.7894 C   0  0  0  0  0  4           0  0  0
  -14.4188   -0.5986    6.7246 C   0  0  0  0  0  4           0  0  0
  -13.0292   -0.5932    6.8697 C   0  0  0  0  0  4           0  0  0
  -10.1343    0.0150    7.2983 C   0  0  0  0  0  4           0  0  0
   -9.8921    0.0174    4.9601 C   0  0  0  0  0  4           0  0  0
   -6.4484   -0.0000    4.1199 C   0  0  0  0  0  4           0  0  0
   -4.9359   -0.0000    4.1791 C   0  0  0  0  0  4           0  0  0
   -4.3090   -0.0000    2.7860 C   0  0  0  0  0  4           0  0  0
   -2.7814   -0.0000    2.7860 C   0  0  0  0  0  4           0  0  0
   -2.1545   -0.0000    1.3930 C   0  0  0  0  0  4           0  0  0
   -0.6269    0.0000    1.3930 C   0  0  0  0  0  4           0  0  0
    0.0000   -0.0000    0.0000 C   0  0  0  0  0  4           0  0  0
    1.5277    0.0000    0.0000 C   0  0  0  0  0  4           0  0  0
    2.1547    0.0000   -1.3930 C   0  0  0  0  0  4           0  0  0
    3.6822    0.0000   -1.3930 C   0  0  0  0  0  4           0  0  0
    4.3091    0.0000   -2.7860 C   0  0  0  0  0  4           0  0  0
    5.8367    0.0000   -2.7860 C   0  0  0  0  0  4           0  0  0
    6.4636    0.0000   -4.1790 C   0  0  0  0  0  4           0  0  0
    7.9912    0.0000   -4.1790 C   0  0  0  0  0  4           0  0  0
    8.6181    0.0000   -5.5719 C   0  0  0  0  0  4           0  0  0
   10.1456    0.0000   -5.5719 C   0  0  0  0  0  4           0  0  0
   10.7726    0.0000   -6.9649 C   0  0  0  0  0  4           0  0  0
   12.2908    0.0000   -6.8900 C   0  0  0  0  0  4           0  0  0
  1  9  1  0     0  0
  2 10  1  0     0  0
  3 18  2  0     0  0
  4 19  2  0     0  0
  5 20  2  0     0  0
  6  7  1  0     0  0
  6 11  1  0     0  0
  7 12  2  0     0  0
  8 13  1  0     0  0
  8 18  1  0     0  0
  8 19  1  0     0  0
  9 10  1  0     0  0
  9 15  2  0     0  0
 10 16  2  0     0  0
 11 14  2  0     0  0
 11 18  1  0     0  0
 12 14  1  0     0  0
 12 20  1  0     0  0
 13 15  1  0     0  0
 13 17  2  0     0  0
 14 19  1  0     0  0
 16 17  1  0     0  0
 20 21  1  0     0  0
 21 22  1  0     0  0
 22 23  1  0     0  0
 23 24  1  0     0  0
 24 25  1  0     0  0
 25 26  1  0     0  0
 26 27  1  0     0  0
 27 28  1  0     0  0
 28 29  1  0     0  0
 29 30  1  0     0  0
 30 31  1  0     0  0
 31 32  1  0     0  0
 32 33  1  0     0  0
 33 34  1  0     0  0
 34 35  1  0     0  0
 35 36  1  0     0  0
 36 37  1  0     0  0
M  END
> <standard_type>
IC50

> <# Confs.>
25

> <canonical_smiles>
O=C1C2=C(C(C(CCCCCCCCCCCCCCCCC)=O)=NN2)C(N1C3=CC=C(F)C(Cl)=C3)=O

> <standard_relation>
=

> <predicted_activity_value>
5.5376020021010435

> <actual_activity_value>
5.939302159646388

> <Compound>
10

> <publication_ID>
nan

> <standard_units>
nM

> hash
15431654101533179008

$$$$
10_
XXILIB    08252103493D 0   0.00000     0.00000

 37 39  0     1  0            999 V2000
  -15.1941    4.1403    2.4067 Cl  0  0  0  0  0  1           0  0  0
  -16.2619    1.7149    3.7189 F   0  0  0  0  0  1           0  0  0
  -10.4061    4.4722    3.9518 O   0  0  0  0  0  2           0  0  0
  -10.1082   -0.2187    3.9554 O   0  0  0  0  0  2           0  0  0
   -7.0630   -1.0662    4.0959 O   0  0  0  0  0  2           0  0  0
   -7.4024    3.4014    4.0685 N   0  0  0  0  0  3           0  0  0
   -6.4597    2.4291    4.1115 N   0  0  0  0  0  3           0  0  0
  -10.7100    2.0994    3.9371 N   0  0  1  0  0  3           0  0  0
  -14.2817    2.9092    3.1929 C   0  0  0  0  0  4           0  0  0
  -14.9257    1.8196    3.7685 C   0  0  0  0  0  4           0  0  0
   -8.6470    2.8924    4.0192 C   0  0  0  0  0  4           0  0  0
   -7.1576    1.2707    4.0840 C   0  0  0  0  0  4           0  0  0
  -12.1280    2.0082    3.8829 C   0  0  0  0  0  4           0  0  0
   -8.5315    1.5374    4.0243 C   0  0  0  0  0  4           0  0  0
  -12.8888    3.0081    3.2502 C   0  0  0  0  0  4           0  0  0
  -14.1936    0.8234    4.4027 C   0  0  0  0  0  4           0  0  0
  -12.8006    0.9159    4.4590 C   0  0  0  0  0  4           0  0  0
  -10.0039    3.3201    3.9657 C   0  0  0  0  0  4           0  0  0
   -9.8533    0.9742    3.9693 C   0  0  0  0  0  4           0  0  0
   -6.4484   -0.0000    4.1199 C   0  0  0  0  0  4           0  0  0
   -4.9359   -0.0000    4.1791 C   0  0  0  0  0  4           0  0  0
   -4.3090   -0.0000    2.7860 C   0  0  0  0  0  4           0  0  0
   -2.7814   -0.0000    2.7860 C   0  0  0  0  0  4           0  0  0
   -2.1545   -0.0000    1.3930 C   0  0  0  0  0  4           0  0  0
   -0.6269    0.0000    1.3930 C   0  0  0  0  0  4           0  0  0
    0.0000   -0.0000    0.0000 C   0  0  0  0  0  4           0  0  0
    1.5277    0.0000    0.0000 C   0  0  0  0  0  4           0  0  0
    2.1547    0.0000   -1.3930 C   0  0  0  0  0  4           0  0  0
    3.6822    0.0000   -1.3930 C   0  0  0  0  0  4           0  0  0
    4.3091    0.0000   -2.7860 C   0  0  0  0  0  4           0  0  0
    5.8367    0.0000   -2.7860 C   0  0  0  0  0  4           0  0  0
    6.4636    0.0000   -4.1790 C   0  0  0  0  0  4           0  0  0
    7.9912    0.0000   -4.1790 C   0  0  0  0  0  4           0  0  0
    8.6181    0.0000   -5.5719 C   0  0  0  0  0  4           0  0  0
   10.1456    0.0000   -5.5719 C   0  0  0  0  0  4           0  0  0
   10.7726    0.0000   -6.9649 C   0  0  0  0  0  4           0  0  0
   12.2908    0.0000   -6.8900 C   0  0  0  0  0  4           0  0  0
  1  9  1  0     0  0
  2 10  1  0     0  0
  3 18  2  0     0  0
  4 19  2  0     0  0
  5 20  2  0     0  0
  6  7  1  0     0  0
  6 11  1  0     0  0
  7 12  2  0     0  0
  8 13  1  0     0  0
  8 18  1  0     0  0
  8 19  1  0     0  0
  9 10  1  0     0  0
  9 15  2  0     0  0
 10 16  2  0     0  0
 11 14  2  0     0  0
 11 18  1  0     0  0
 12 14  1  0     0  0
 12 20  1  0     0  0
 13 15  1  0     0  0
 13 17  2  0     0  0
 14 19  1  0     0  0
 16 17  1  0     0  0
 20 21  1  0     0  0
 21 22  1  0     0  0
 22 23  1  0     0  0
 23 24  1  0     0  0
 24 25  1  0     0  0
 25 26  1  0     0  0
 26 27  1  0     0  0
 27 28  1  0     0  0
 28 29  1  0     0  0
 29 30  1  0     0  0
 30 31  1  0     0  0
 31 32  1  0     0  0
 32 33  1  0     0  0
 33 34  1  0     0  0
 34 35  1  0     0  0
 35 36  1  0     0  0
 36 37  1  0     0  0
M  END
> <standard_type>
IC50

> <# Confs.>
25

> <canonical_smiles>
O=C1C2=C(C(C(CCCCCCCCCCCCCCCCC)=O)=NN2)C(N1C3=CC=C(F)C(Cl)=C3)=O

> <standard_relation>
=

> <predicted_activity_value>
5.5376020021010435

> <actual_activity_value>
5.939302159646388

> <Compound>
10

> <publication_ID>
nan

> <standard_units>
nM

> hash
15431654101533179008

$$$$
10_
XXILIB    08252103493D 0   0.00000     0.00000

 37 39  0     1  0            999 V2000
  -15.3013   -4.1403    5.1445 Cl  0  0  0  0  0  1           0  0  0
  -16.2633   -1.7149    3.7528 F   0  0  0  0  0  1           0  0  0
  -10.4071   -4.4722    3.9783 O   0  0  0  0  0  2           0  0  0
  -10.1099    0.2187    3.9980 O   0  0  0  0  0  2           0  0  0
   -7.0630    1.0662    4.0959 O   0  0  0  0  0  2           0  0  0
   -7.4035   -3.4014    4.0966 N   0  0  0  0  0  3           0  0  0
   -6.4603   -2.4291    4.1274 N   0  0  0  0  0  3           0  0  0
  -10.7113   -2.0994    3.9692 N   0  0  1  0  0  3           0  0  0
  -14.3302   -2.9092    4.4320 C   0  0  0  0  0  4           0  0  0
  -14.9272   -1.8196    3.8078 C   0  0  0  0  0  4           0  0  0
   -8.6482   -2.8924    4.0485 C   0  0  0  0  0  4           0  0  0
   -7.1583   -1.2707    4.1003 C   0  0  0  0  0  4           0  0  0
  -12.1291   -2.0082    3.9124 C   0  0  0  0  0  4           0  0  0
   -8.5326   -1.5374    4.0524 C   0  0  0  0  0  4           0  0  0
  -12.9371   -3.0081    4.4837 C   0  0  0  0  0  4           0  0  0
  -14.1478   -0.8234    3.2328 C   0  0  0  0  0  4           0  0  0
  -12.7547   -0.9159    3.2855 C   0  0  0  0  0  4           0  0  0
  -10.0051   -3.3201    3.9958 C   0  0  0  0  0  4           0  0  0
   -9.8547   -0.9742    4.0040 C   0  0  0  0  0  4           0  0  0
   -6.4484   -0.0000    4.1199 C   0  0  0  0  0  4           0  0  0
   -4.9359   -0.0000    4.1791 C   0  0  0  0  0  4           0  0  0
   -4.3090   -0.0000    2.7860 C   0  0  0  0  0  4           0  0  0
   -2.7814   -0.0000    2.7860 C   0  0  0  0  0  4           0  0  0
   -2.1545   -0.0000    1.3930 C   0  0  0  0  0  4           0  0  0
   -0.6269    0.0000    1.3930 C   0  0  0  0  0  4           0  0  0
    0.0000   -0.0000    0.0000 C   0  0  0  0  0  4           0  0  0
    1.5277    0.0000    0.0000 C   0  0  0  0  0  4           0  0  0
    2.1547    0.0000   -1.3930 C   0  0  0  0  0  4           0  0  0
    3.6822    0.0000   -1.3930 C   0  0  0  0  0  4           0  0  0
    4.3091    0.0000   -2.7860 C   0  0  0  0  0  4           0  0  0
    5.8367    0.0000   -2.7860 C   0  0  0  0  0  4           0  0  0
    6.4636    0.0000   -4.1790 C   0  0  0  0  0  4           0  0  0
    7.9912    0.0000   -4.1790 C   0  0  0  0  0  4           0  0  0
    8.6181    0.0000   -5.5719 C   0  0  0  0  0  4           0  0  0
   10.1456    0.0000   -5.5719 C   0  0  0  0  0  4           0  0  0
   10.7726    0.0000   -6.9649 C   0  0  0  0  0  4           0  0  0
   12.2908    0.0000   -6.8900 C   0  0  0  0  0  4           0  0  0
  1  9  1  0     0  0
  2 10  1  0     0  0
  3 18  2  0     0  0
  4 19  2  0     0  0
  5 20  2  0     0  0
  6  7  1  0     0  0
  6 11  1  0     0  0
  7 12  2  0     0  0
  8 13  1  0     0  0
  8 18  1  0     0  0
  8 19  1  0     0  0
  9 10  1  0     0  0
  9 15  2  0     0  0
 10 16  2  0     0  0
 11 14  2  0     0  0
 11 18  1  0     0  0
 12 14  1  0     0  0
 12 20  1  0     0  0
 13 15  1  0     0  0
 13 17  2  0     0  0
 14 19  1  0     0  0
 16 17  1  0     0  0
 20 21  1  0     0  0
 21 22  1  0     0  0
 22 23  1  0     0  0
 23 24  1  0     0  0
 24 25  1  0     0  0
 25 26  1  0     0  0
 26 27  1  0     0  0
 27 28  1  0     0  0
 28 29  1  0     0  0
 29 30  1  0     0  0
 30 31  1  0     0  0
 31 32  1  0     0  0
 32 33  1  0     0  0
 33 34  1  0     0  0
 34 35  1  0     0  0
 35 36  1  0     0  0
 36 37  1  0     0  0
M  END
> <standard_type>
IC50

> <# Confs.>
25

> <canonical_smiles>
O=C1C2=C(C(C(CCCCCCCCCCCCCCCCC)=O)=NN2)C(N1C3=CC=C(F)C(Cl)=C3)=O

> <standard_relation>
=

> <predicted_activity_value>
5.5376020021010435

> <actual_activity_value>
5.939302159646388

> <Compound>
10

> <publication_ID>
nan

> <standard_units>
nM

> hash
15431654101533179008

$$$$
10_
XXILIB    08252103493D 0   0.00000     0.00000

 37 39  0     1  0            999 V2000
  -15.2978    4.1525    5.0995 Cl  0  0  0  0  0  1           0  0  0
  -16.2623    1.7338    3.6979 F   0  0  0  0  0  1           0  0  0
  -10.4061    4.4722    3.9518 O   0  0  0  0  0  2           0  0  0
  -10.1082   -0.2187    3.9554 O   0  0  0  0  0  2           0  0  0
   -7.0630   -1.0662    4.0959 O   0  0  0  0  0  2           0  0  0
   -7.4024    3.4014    4.0685 N   0  0  0  0  0  3           0  0  0
   -6.4597    2.4291    4.1115 N   0  0  0  0  0  3           0  0  0
  -10.7100    2.0994    3.9371 N   0  0  1  0  0  3           0  0  0
  -14.3281    2.9157    4.3952 C   0  0  0  0  0  4           0  0  0
  -14.9262    1.8304    3.7646 C   0  0  0  0  0  4           0  0  0
   -8.6470    2.8924    4.0192 C   0  0  0  0  0  4           0  0  0
   -7.1576    1.2707    4.0840 C   0  0  0  0  0  4           0  0  0
  -12.1280    2.0082    3.8829 C   0  0  0  0  0  4           0  0  0
   -8.5315    1.5374    4.0243 C   0  0  0  0  0  4           0  0  0
  -12.9349    3.0064    4.4586 C   0  0  0  0  0  4           0  0  0
  -14.1479    0.8309    3.1939 C   0  0  0  0  0  4           0  0  0
  -12.7547    0.9193    3.2512 C   0  0  0  0  0  4           0  0  0
  -10.0039    3.3201    3.9657 C   0  0  0  0  0  4           0  0  0
   -9.8533    0.9742    3.9693 C   0  0  0  0  0  4           0  0  0
   -6.4484   -0.0000    4.1199 C   0  0  0  0  0  4           0  0  0
   -4.9359   -0.0000    4.1791 C   0  0  0  0  0  4           0  0  0
   -4.3090   -0.0000    2.7860 C   0  0  0  0  0  4           0  0  0
   -2.7814   -0.0000    2.7860 C   0  0  0  0  0  4           0  0  0
   -2.1545   -0.0000    1.3930 C   0  0  0  0  0  4           0  0  0
   -0.6269    0.0000    1.3930 C   0  0  0  0  0  4           0  0  0
    0.0000   -0.0000    0.0000 C   0  0  0  0  0  4           0  0  0
    1.5277    0.0000    0.0000 C   0  0  0  0  0  4           0  0  0
    2.1547    0.0000   -1.3930 C   0  0  0  0  0  4           0  0  0
    3.6822    0.0000   -1.3930 C   0  0  0  0  0  4           0  0  0
    4.3091    0.0000   -2.7860 C   0  0  0  0  0  4           0  0  0
    5.8367    0.0000   -2.7860 C   0  0  0  0  0  4           0  0  0
    6.4636    0.0000   -4.1790 C   0  0  0  0  0  4           0  0  0
    7.9912    0.0000   -4.1790 C   0  0  0  0  0  4           0  0  0
    8.6181    0.0000   -5.5719 C   0  0  0  0  0  4           0  0  0
   10.1456    0.0000   -5.5719 C   0  0  0  0  0  4           0  0  0
   10.7726    0.0000   -6.9649 C   0  0  0  0  0  4           0  0  0
   12.2908    0.0000   -6.8900 C   0  0  0  0  0  4           0  0  0
  1  9  1  0     0  0
  2 10  1  0     0  0
  3 18  2  0     0  0
  4 19  2  0     0  0
  5 20  2  0     0  0
  6  7  1  0     0  0
  6 11  1  0     0  0
  7 12  2  0     0  0
  8 13  1  0     0  0
  8 18  1  0     0  0
  8 19  1  0     0  0
  9 10  1  0     0  0
  9 15  2  0     0  0
 10 16  2  0     0  0
 11 14  2  0     0  0
 11 18  1  0     0  0
 12 14  1  0     0  0
 12 20  1  0     0  0
 13 15  1  0     0  0
 13 17  2  0     0  0
 14 19  1  0     0  0
 16 17  1  0     0  0
 20 21  1  0     0  0
 21 22  1  0     0  0
 22 23  1  0     0  0
 23 24  1  0     0  0
 24 25  1  0     0  0
 25 26  1  0     0  0
 26 27  1  0     0  0
 27 28  1  0     0  0
 28 29  1  0     0  0
 29 30  1  0     0  0
 30 31  1  0     0  0
 31 32  1  0     0  0
 32 33  1  0     0  0
 33 34  1  0     0  0
 34 35  1  0     0  0
 35 36  1  0     0  0
 36 37  1  0     0  0
M  END
> <standard_type>
IC50

> <# Confs.>
25

> <canonical_smiles>
O=C1C2=C(C(C(CCCCCCCCCCCCCCCCC)=O)=NN2)C(N1C3=CC=C(F)C(Cl)=C3)=O

> <standard_relation>
=

> <predicted_activity_value>
5.5376020021010435

> <actual_activity_value>
5.939302159646388

> <Compound>
10

> <publication_ID>
nan

> <standard_units>
nM

> hash
15431654101533179008

$$$$
10_
XXILIB    08252103493D 0   0.00000     0.00000

 37 39  0     1  0            999 V2000
  -15.1942   -4.1525    2.4518 Cl  0  0  0  0  0  1           0  0  0
  -16.2653   -1.7338    3.7737 F   0  0  0  0  0  1           0  0  0
  -10.4071   -4.4722    3.9783 O   0  0  0  0  0  2           0  0  0
  -10.1099    0.2187    3.9980 O   0  0  0  0  0  2           0  0  0
   -7.0630    1.0662    4.0959 O   0  0  0  0  0  2           0  0  0
   -7.4035   -3.4014    4.0966 N   0  0  0  0  0  3           0  0  0
   -6.4603   -2.4291    4.1274 N   0  0  0  0  0  3           0  0  0
  -10.7113   -2.0994    3.9692 N   0  0  1  0  0  3           0  0  0
  -14.2825   -2.9157    3.2298 C   0  0  0  0  0  4           0  0  0
  -14.9281   -1.8304    3.8117 C   0  0  0  0  0  4           0  0  0
   -8.6482   -2.8924    4.0485 C   0  0  0  0  0  4           0  0  0
   -7.1583   -1.2707    4.1003 C   0  0  0  0  0  4           0  0  0
  -12.1291   -2.0082    3.9124 C   0  0  0  0  0  4           0  0  0
   -8.5326   -1.5374    4.0524 C   0  0  0  0  0  4           0  0  0
  -12.8886   -3.0064    3.2754 C   0  0  0  0  0  4           0  0  0
  -14.1967   -0.8309    4.4415 C   0  0  0  0  0  4           0  0  0
  -12.8033   -0.9193    4.4931 C   0  0  0  0  0  4           0  0  0
  -10.0051   -3.3201    3.9958 C   0  0  0  0  0  4           0  0  0
   -9.8547   -0.9742    4.0040 C   0  0  0  0  0  4           0  0  0
   -6.4484   -0.0000    4.1199 C   0  0  0  0  0  4           0  0  0
   -4.9359   -0.0000    4.1791 C   0  0  0  0  0  4           0  0  0
   -4.3090   -0.0000    2.7860 C   0  0  0  0  0  4           0  0  0
   -2.7814   -0.0000    2.7860 C   0  0  0  0  0  4           0  0  0
   -2.1545   -0.0000    1.3930 C   0  0  0  0  0  4           0  0  0
   -0.6269    0.0000    1.3930 C   0  0  0  0  0  4           0  0  0
    0.0000   -0.0000    0.0000 C   0  0  0  0  0  4           0  0  0
    1.5277    0.0000    0.0000 C   0  0  0  0  0  4           0  0  0
    2.1547    0.0000   -1.3930 C   0  0  0  0  0  4           0  0  0
    3.6822    0.0000   -1.3930 C   0  0  0  0  0  4           0  0  0
    4.3091    0.0000   -2.7860 C   0  0  0  0  0  4           0  0  0
    5.8367    0.0000   -2.7860 C   0  0  0  0  0  4           0  0  0
    6.4636    0.0000   -4.1790 C   0  0  0  0  0  4           0  0  0
    7.9912    0.0000   -4.1790 C   0  0  0  0  0  4           0  0  0
    8.6181    0.0000   -5.5719 C   0  0  0  0  0  4           0  0  0
   10.1456    0.0000   -5.5719 C   0  0  0  0  0  4           0  0  0
   10.7726    0.0000   -6.9649 C   0  0  0  0  0  4           0  0  0
   12.2908    0.0000   -6.8900 C   0  0  0  0  0  4           0  0  0
  1  9  1  0     0  0
  2 10  1  0     0  0
  3 18  2  0     0  0
  4 19  2  0     0  0
  5 20  2  0     0  0
  6  7  1  0     0  0
  6 11  1  0     0  0
  7 12  2  0     0  0
  8 13  1  0     0  0
  8 18  1  0     0  0
  8 19  1  0     0  0
  9 10  1  0     0  0
  9 15  2  0     0  0
 10 16  2  0     0  0
 11 14  2  0     0  0
 11 18  1  0     0  0
 12 14  1  0     0  0
 12 20  1  0     0  0
 13 15  1  0     0  0
 13 17  2  0     0  0
 14 19  1  0     0  0
 16 17  1  0     0  0
 20 21  1  0     0  0
 21 22  1  0     0  0
 22 23  1  0     0  0
 23 24  1  0     0  0
 24 25  1  0     0  0
 25 26  1  0     0  0
 26 27  1  0     0  0
 27 28  1  0     0  0
 28 29  1  0     0  0
 29 30  1  0     0  0
 30 31  1  0     0  0
 31 32  1  0     0  0
 32 33  1  0     0  0
 33 34  1  0     0  0
 34 35  1  0     0  0
 35 36  1  0     0  0
 36 37  1  0     0  0
M  END
> <standard_type>
IC50

> <# Confs.>
25

> <canonical_smiles>
O=C1C2=C(C(C(CCCCCCCCCCCCCCCCC)=O)=NN2)C(N1C3=CC=C(F)C(Cl)=C3)=O

> <standard_relation>
=

> <predicted_activity_value>
5.5376020021010435

> <actual_activity_value>
5.939302159646388

> <Compound>
10

> <publication_ID>
nan

> <standard_units>
nM

> hash
15431654101533179008

$$$$
10_
XXILIB    08252103493D 0   0.00000     0.00000

 37 39  0     1  0            999 V2000
   -6.1838    9.9129    9.2479 Cl  0  0  0  0  0  1           0  0  0
   -3.2491    9.9545    9.6099 F   0  0  0  0  0  1           0  0  0
   -7.0017    6.6282    5.5109 O   0  0  0  0  0  2           0  0  0
   -3.3818    4.0411    7.0260 O   0  0  0  0  0  2           0  0  0
   -3.5211    1.1763    5.6900 O   0  0  0  0  0  2           0  0  0
   -6.9654    3.6787    4.2938 N   0  0  0  0  0  3           0  0  0
   -6.4482    2.4367    4.1329 N   0  0  0  0  0  3           0  0  0
   -5.0475    5.6853    6.5182 N   0  0  1  0  0  3           0  0  0
   -5.0517    8.7836    8.6078 C   0  0  0  0  0  4           0  0  0
   -3.6931    8.9322    8.8637 C   0  0  0  0  0  4           0  0  0
   -6.2286    4.4243    5.1375 C   0  0  0  0  0  4           0  0  0
   -5.3455    2.4184    4.9161 C   0  0  0  0  0  4           0  0  0
   -4.5930    6.7796    7.3041 C   0  0  0  0  0  4           0  0  0
   -5.1894    3.6542    5.5571 C   0  0  0  0  0  4           0  0  0
   -5.5035    7.7145    7.8292 C   0  0  0  0  0  4           0  0  0
   -2.7764    8.0230    8.3505 C   0  0  0  0  0  4           0  0  0
   -3.2237    6.9503    7.5750 C   0  0  0  0  0  4           0  0  0
   -6.2012    5.7284    5.7077 C   0  0  0  0  0  4           0  0  0
   -4.3903    4.4338    6.4633 C   0  0  0  0  0  4           0  0  0
   -4.5286    1.2155    4.9839 C   0  0  0  0  0  4           0  0  0
   -4.9359    0.0000    4.1791 C   0  0  0  0  0  4           0  0  0
   -4.3090    0.0000    2.7860 C   0  0  0  0  0  4           0  0  0
   -2.7814    0.0000    2.7860 C   0  0  0  0  0  4           0  0  0
   -2.1545    0.0000    1.3930 C   0  0  0  0  0  4           0  0  0
   -0.6269    0.0000    1.3930 C   0  0  0  0  0  4           0  0  0
    0.0000    0.0000    0.0000 C   0  0  0  0  0  4           0  0  0
    1.5277    0.0000    0.0000 C   0  0  0  0  0  4           0  0  0
    2.1547    0.0000   -1.3930 C   0  0  0  0  0  4           0  0  0
    3.6822    0.0000   -1.3930 C   0  0  0  0  0  4           0  0  0
    4.3091    0.0000   -2.7860 C   0  0  0  0  0  4           0  0  0
    5.8367    0.0000   -2.7860 C   0  0  0  0  0  4           0  0  0
    6.4636    0.0000   -4.1790 C   0  0  0  0  0  4           0  0  0
    7.9912    0.0000   -4.1790 C   0  0  0  0  0  4           0  0  0
    8.6181    0.0000   -5.5719 C   0  0  0  0  0  4           0  0  0
   10.1456    0.0000   -5.5719 C   0  0  0  0  0  4           0  0  0
   10.7726    0.0000   -6.9649 C   0  0  0  0  0  4           0  0  0
   12.2908    0.0000   -6.8900 C   0  0  0  0  0  4           0  0  0
  1  9  1  0     0  0
  2 10  1  0     0  0
  3 18  2  0     0  0
  4 19  2  0     0  0
  5 20  2  0     0  0
  6  7  1  0     0  0
  6 11  1  0     0  0
  7 12  2  0     0  0
  8 13  1  0     0  0
  8 18  1  0     0  0
  8 19  1  0     0  0
  9 10  1  0     0  0
  9 15  2  0     0  0
 10 16  2  0     0  0
 11 14  2  0     0  0
 11 18  1  0     0  0
 12 14  1  0     0  0
 12 20  1  0     0  0
 13 15  1  0     0  0
 13 17  2  0     0  0
 14 19  1  0     0  0
 16 17  1  0     0  0
 20 21  1  0     0  0
 21 22  1  0     0  0
 22 23  1  0     0  0
 23 24  1  0     0  0
 24 25  1  0     0  0
 25 26  1  0     0  0
 26 27  1  0     0  0
 27 28  1  0     0  0
 28 29  1  0     0  0
 29 30  1  0     0  0
 30 31  1  0     0  0
 31 32  1  0     0  0
 32 33  1  0     0  0
 33 34  1  0     0  0
 34 35  1  0     0  0
 35 36  1  0     0  0
 36 37  1  0     0  0
M  END
> <standard_type>
IC50

> <# Confs.>
25

> <canonical_smiles>
O=C1C2=C(C(C(CCCCCCCCCCCCCCCCC)=O)=NN2)C(N1C3=CC=C(F)C(Cl)=C3)=O

> <standard_relation>
=

> <predicted_activity_value>
5.5376020021010435

> <actual_activity_value>
5.939302159646388

> <Compound>
10

> <publication_ID>
nan

> <standard_units>
nM

> hash
15431654101533179008

$$$$
10_
XXILIB    08252103493D 0   0.00000     0.00000

 37 39  0     1  0            999 V2000
   -4.7083   10.7915    7.1710 Cl  0  0  0  0  0  1           0  0  0
   -3.2753    9.9581    9.6199 F   0  0  0  0  0  1           0  0  0
   -7.0017    6.6282    5.5109 O   0  0  0  0  0  2           0  0  0
   -3.3818    4.0411    7.0260 O   0  0  0  0  0  2           0  0  0
   -3.5211    1.1763    5.6900 O   0  0  0  0  0  2           0  0  0
   -6.9654    3.6787    4.2938 N   0  0  0  0  0  3           0  0  0
   -6.4482    2.4367    4.1329 N   0  0  0  0  0  3           0  0  0
   -5.0475    5.6853    6.5182 N   0  0  1  0  0  3           0  0  0
   -4.3937    9.1765    7.6802 C   0  0  0  0  0  4           0  0  0
   -3.7036    8.9369    8.8633 C   0  0  0  0  0  4           0  0  0
   -6.2286    4.4243    5.1375 C   0  0  0  0  0  4           0  0  0
   -5.3455    2.4184    4.9161 C   0  0  0  0  0  4           0  0  0
   -4.5930    6.7796    7.3041 C   0  0  0  0  0  4           0  0  0
   -5.1894    3.6542    5.5571 C   0  0  0  0  0  4           0  0  0
   -4.8358    8.1048    6.8996 C   0  0  0  0  0  4           0  0  0
   -3.4488    7.6357    9.2786 C   0  0  0  0  0  4           0  0  0
   -3.8923    6.5611    8.5036 C   0  0  0  0  0  4           0  0  0
   -6.2012    5.7284    5.7077 C   0  0  0  0  0  4           0  0  0
   -4.3903    4.4338    6.4633 C   0  0  0  0  0  4           0  0  0
   -4.5286    1.2155    4.9839 C   0  0  0  0  0  4           0  0  0
   -4.9359    0.0000    4.1791 C   0  0  0  0  0  4           0  0  0
   -4.3090    0.0000    2.7860 C   0  0  0  0  0  4           0  0  0
   -2.7814    0.0000    2.7860 C   0  0  0  0  0  4           0  0  0
   -2.1545    0.0000    1.3930 C   0  0  0  0  0  4           0  0  0
   -0.6269    0.0000    1.3930 C   0  0  0  0  0  4           0  0  0
    0.0000    0.0000    0.0000 C   0  0  0  0  0  4           0  0  0
    1.5277    0.0000    0.0000 C   0  0  0  0  0  4           0  0  0
    2.1547    0.0000   -1.3930 C   0  0  0  0  0  4           0  0  0
    3.6822    0.0000   -1.3930 C   0  0  0  0  0  4           0  0  0
    4.3091    0.0000   -2.7860 C   0  0  0  0  0  4           0  0  0
    5.8367    0.0000   -2.7860 C   0  0  0  0  0  4           0  0  0
    6.4636    0.0000   -4.1790 C   0  0  0  0  0  4           0  0  0
    7.9912    0.0000   -4.1790 C   0  0  0  0  0  4           0  0  0
    8.6181    0.0000   -5.5719 C   0  0  0  0  0  4           0  0  0
   10.1456    0.0000   -5.5719 C   0  0  0  0  0  4           0  0  0
   10.7726    0.0000   -6.9649 C   0  0  0  0  0  4           0  0  0
   12.2908    0.0000   -6.8900 C   0  0  0  0  0  4           0  0  0
  1  9  1  0     0  0
  2 10  1  0     0  0
  3 18  2  0     0  0
  4 19  2  0     0  0
  5 20  2  0     0  0
  6  7  1  0     0  0
  6 11  1  0     0  0
  7 12  2  0     0  0
  8 13  1  0     0  0
  8 18  1  0     0  0
  8 19  1  0     0  0
  9 10  1  0     0  0
  9 15  2  0     0  0
 10 16  2  0     0  0
 11 14  2  0     0  0
 11 18  1  0     0  0
 12 14  1  0     0  0
 12 20  1  0     0  0
 13 15  1  0     0  0
 13 17  2  0     0  0
 14 19  1  0     0  0
 16 17  1  0     0  0
 20 21  1  0     0  0
 21 22  1  0     0  0
 22 23  1  0     0  0
 23 24  1  0     0  0
 24 25  1  0     0  0
 25 26  1  0     0  0
 26 27  1  0     0  0
 27 28  1  0     0  0
 28 29  1  0     0  0
 29 30  1  0     0  0
 30 31  1  0     0  0
 31 32  1  0     0  0
 32 33  1  0     0  0
 33 34  1  0     0  0
 34 35  1  0     0  0
 35 36  1  0     0  0
 36 37  1  0     0  0
M  END
> <standard_type>
IC50

> <# Confs.>
25

> <canonical_smiles>
O=C1C2=C(C(C(CCCCCCCCCCCCCCCCC)=O)=NN2)C(N1C3=CC=C(F)C(Cl)=C3)=O

> <standard_relation>
=

> <predicted_activity_value>
5.5376020021010435

> <actual_activity_value>
5.939302159646388

> <Compound>
10

> <publication_ID>
nan

> <standard_units>
nM

> hash
15431654101533179008

$$$$
10_
XXILIB    08252103493D 0   0.00000     0.00000

 37 39  0     1  0            999 V2000
  -15.4096   -5.1249    1.4090 Cl  0  0  0  0  0  1           0  0  0
  -16.3297   -2.3151    1.4689 F   0  0  0  0  0  1           0  0  0
  -10.5815   -4.8978   -0.0265 O   0  0  0  0  0  2           0  0  0
  -10.1005   -0.8526    2.3183 O   0  0  0  0  0  2           0  0  0
   -7.0213   -0.2117    2.6637 O   0  0  0  0  0  2           0  0  0
   -7.5360   -4.0733    0.4505 N   0  0  0  0  0  3           0  0  0
   -6.5550   -3.2608    0.9125 N   0  0  0  0  0  3           0  0  0
  -10.7928   -2.8355    1.1674 N   0  0  1  0  0  3           0  0  0
  -14.4197   -3.7164    1.3562 C   0  0  0  0  0  4           0  0  0
  -14.9976   -2.4523    1.3928 C   0  0  0  0  0  4           0  0  0
   -8.7607   -3.5910    0.7296 C   0  0  0  0  0  4           0  0  0
   -7.2076   -2.2349    1.5050 C   0  0  0  0  0  4           0  0  0
  -12.2071   -2.7080    1.2396 C   0  0  0  0  0  4           0  0  0
   -8.5922   -2.4221    1.4038 C   0  0  0  0  0  4           0  0  0
  -13.0306   -3.8479    1.2771 C   0  0  0  0  0  4           0  0  0
  -14.2029   -1.3134    1.3517 C   0  0  0  0  0  4           0  0  0
  -12.8135   -1.4398    1.2767 C   0  0  0  0  0  4           0  0  0
  -10.1343   -3.9153    0.5428 C   0  0  0  0  0  4           0  0  0
   -9.8921   -1.8915    1.7139 C   0  0  0  0  0  4           0  0  0
   -6.4484   -1.1552    2.1190 C   0  0  0  0  0  4           0  0  0
   -4.9359   -1.2065    2.0894 C   0  0  0  0  0  4           0  0  0
   -4.3090   -0.0000    2.7860 C   0  0  0  0  0  4           0  0  0
   -2.7814    0.0000    2.7860 C   0  0  0  0  0  4           0  0  0
   -2.1545   -0.0000    1.3930 C   0  0  0  0  0  4           0  0  0
   -0.6269    0.0000    1.3930 C   0  0  0  0  0  4           0  0  0
    0.0000    0.0000    0.0000 C   0  0  0  0  0  4           0  0  0
    1.5277    0.0000    0.0000 C   0  0  0  0  0  4           0  0  0
    2.1547    0.0000   -1.3930 C   0  0  0  0  0  4           0  0  0
    3.6822    0.0000   -1.3930 C   0  0  0  0  0  4           0  0  0
    4.3091    0.0000   -2.7860 C   0  0  0  0  0  4           0  0  0
    5.8367    0.0000   -2.7860 C   0  0  0  0  0  4           0  0  0
    6.4636    0.0000   -4.1790 C   0  0  0  0  0  4           0  0  0
    7.9912    0.0000   -4.1790 C   0  0  0  0  0  4           0  0  0
    8.6181    0.0000   -5.5719 C   0  0  0  0  0  4           0  0  0
   10.1456    0.0000   -5.5719 C   0  0  0  0  0  4           0  0  0
   10.7726    0.0000   -6.9649 C   0  0  0  0  0  4           0  0  0
   12.2908    0.0000   -6.8900 C   0  0  0  0  0  4           0  0  0
  1  9  1  0     0  0
  2 10  1  0     0  0
  3 18  2  0     0  0
  4 19  2  0     0  0
  5 20  2  0     0  0
  6  7  1  0     0  0
  6 11  1  0     0  0
  7 12  2  0     0  0
  8 13  1  0     0  0
  8 18  1  0     0  0
  8 19  1  0     0  0
  9 10  1  0     0  0
  9 15  2  0     0  0
 10 16  2  0     0  0
 11 14  2  0     0  0
 11 18  1  0     0  0
 12 14  1  0     0  0
 12 20  1  0     0  0
 13 15  1  0     0  0
 13 17  2  0     0  0
 14 19  1  0     0  0
 16 17  1  0     0  0
 20 21  1  0     0  0
 21 22  1  0     0  0
 22 23  1  0     0  0
 23 24  1  0     0  0
 24 25  1  0     0  0
 25 26  1  0     0  0
 26 27  1  0     0  0
 27 28  1  0     0  0
 28 29  1  0     0  0
 29 30  1  0     0  0
 30 31  1  0     0  0
 31 32  1  0     0  0
 32 33  1  0     0  0
 33 34  1  0     0  0
 34 35  1  0     0  0
 35 36  1  0     0  0
 36 37  1  0     0  0
M  END
> <standard_type>
IC50

> <# Confs.>
25

> <canonical_smiles>
O=C1C2=C(C(C(CCCCCCCCCCCCCCCCC)=O)=NN2)C(N1C3=CC=C(F)C(Cl)=C3)=O

> <standard_relation>
=

> <predicted_activity_value>
5.5376020021010435

> <actual_activity_value>
5.939302159646388

> <Compound>
10

> <publication_ID>
nan

> <standard_units>
nM

> hash
15431654101533179008

$$$$
10_
XXILIB    08252103493D 0   0.00000     0.00000

 37 39  0     1  0            999 V2000
  -15.4084   -3.7881   -0.9309 Cl  0  0  0  0  0  1           0  0  0
  -16.3316   -2.3419    1.4777 F   0  0  0  0  0  1           0  0  0
  -10.5815   -4.8978   -0.0265 O   0  0  0  0  0  2           0  0  0
  -10.1005   -0.8526    2.3183 O   0  0  0  0  0  2           0  0  0
   -7.0213   -0.2117    2.6637 O   0  0  0  0  0  2           0  0  0
   -7.5360   -4.0733    0.4505 N   0  0  0  0  0  3           0  0  0
   -6.5550   -3.2608    0.9125 N   0  0  0  0  0  3           0  0  0
  -10.7928   -2.8355    1.1674 N   0  0  1  0  0  3           0  0  0
  -14.4193   -3.1205    0.3110 C   0  0  0  0  0  4           0  0  0
  -14.9987   -2.4636    1.3908 C   0  0  0  0  0  4           0  0  0
   -8.7607   -3.5910    0.7296 C   0  0  0  0  0  4           0  0  0
   -7.2076   -2.2349    1.5050 C   0  0  0  0  0  4           0  0  0
  -12.2071   -2.7080    1.2396 C   0  0  0  0  0  4           0  0  0
   -8.5922   -2.4221    1.4038 C   0  0  0  0  0  4           0  0  0
  -13.0293   -3.2418    0.2307 C   0  0  0  0  0  4           0  0  0
  -14.2048   -1.9247    2.3956 C   0  0  0  0  0  4           0  0  0
  -12.8149   -2.0470    2.3217 C   0  0  0  0  0  4           0  0  0
  -10.1343   -3.9153    0.5428 C   0  0  0  0  0  4           0  0  0
   -9.8921   -1.8915    1.7139 C   0  0  0  0  0  4           0  0  0
   -6.4484   -1.1552    2.1190 C   0  0  0  0  0  4           0  0  0
   -4.9359   -1.2065    2.0894 C   0  0  0  0  0  4           0  0  0
   -4.3090   -0.0000    2.7860 C   0  0  0  0  0  4           0  0  0
   -2.7814    0.0000    2.7860 C   0  0  0  0  0  4           0  0  0
   -2.1545   -0.0000    1.3930 C   0  0  0  0  0  4           0  0  0
   -0.6269    0.0000    1.3930 C   0  0  0  0  0  4           0  0  0
    0.0000    0.0000    0.0000 C   0  0  0  0  0  4           0  0  0
    1.5277    0.0000    0.0000 C   0  0  0  0  0  4           0  0  0
    2.1547    0.0000   -1.3930 C   0  0  0  0  0  4           0  0  0
    3.6822    0.0000   -1.3930 C   0  0  0  0  0  4           0  0  0
    4.3091    0.0000   -2.7860 C   0  0  0  0  0  4           0  0  0
    5.8367    0.0000   -2.7860 C   0  0  0  0  0  4           0  0  0
    6.4636    0.0000   -4.1790 C   0  0  0  0  0  4           0  0  0
    7.9912    0.0000   -4.1790 C   0  0  0  0  0  4           0  0  0
    8.6181    0.0000   -5.5719 C   0  0  0  0  0  4           0  0  0
   10.1456    0.0000   -5.5719 C   0  0  0  0  0  4           0  0  0
   10.7726    0.0000   -6.9649 C   0  0  0  0  0  4           0  0  0
   12.2908    0.0000   -6.8900 C   0  0  0  0  0  4           0  0  0
  1  9  1  0     0  0
  2 10  1  0     0  0
  3 18  2  0     0  0
  4 19  2  0     0  0
  5 20  2  0     0  0
  6  7  1  0     0  0
  6 11  1  0     0  0
  7 12  2  0     0  0
  8 13  1  0     0  0
  8 18  1  0     0  0
  8 19  1  0     0  0
  9 10  1  0     0  0
  9 15  2  0     0  0
 10 16  2  0     0  0
 11 14  2  0     0  0
 11 18  1  0     0  0
 12 14  1  0     0  0
 12 20  1  0     0  0
 13 15  1  0     0  0
 13 17  2  0     0  0
 14 19  1  0     0  0
 16 17  1  0     0  0
 20 21  1  0     0  0
 21 22  1  0     0  0
 22 23  1  0     0  0
 23 24  1  0     0  0
 24 25  1  0     0  0
 25 26  1  0     0  0
 26 27  1  0     0  0
 27 28  1  0     0  0
 28 29  1  0     0  0
 29 30  1  0     0  0
 30 31  1  0     0  0
 31 32  1  0     0  0
 32 33  1  0     0  0
 33 34  1  0     0  0
 34 35  1  0     0  0
 35 36  1  0     0  0
 36 37  1  0     0  0
M  END
> <standard_type>
IC50

> <# Confs.>
25

> <canonical_smiles>
O=C1C2=C(C(C(CCCCCCCCCCCCCCCCC)=O)=NN2)C(N1C3=CC=C(F)C(Cl)=C3)=O

> <standard_relation>
=

> <predicted_activity_value>
5.5376020021010435

> <actual_activity_value>
5.939302159646388

> <Compound>
10

> <publication_ID>
nan

> <standard_units>
nM

> hash
15431654101533179008

$$$$
10_
XXILIB    08252103493D 0   0.00000     0.00000

 37 39  0     1  0            999 V2000
   -4.6733  -10.8013    7.1416 Cl  0  0  0  0  0  1           0  0  0
   -3.2304   -9.9655    9.5838 F   0  0  0  0  0  1           0  0  0
   -6.9871   -6.6368    5.4905 O   0  0  0  0  0  2           0  0  0
   -3.3583   -4.0549    6.9932 O   0  0  0  0  0  2           0  0  0
   -3.5211   -1.1763    5.6900 O   0  0  0  0  0  2           0  0  0
   -6.9500   -3.6878    4.2722 N   0  0  0  0  0  3           0  0  0
   -6.4394   -2.4419    4.1206 N   0  0  0  0  0  3           0  0  0
   -5.0298   -5.6957    6.4935 N   0  0  1  0  0  3           0  0  0
   -4.3681   -9.1857    7.6546 C   0  0  0  0  0  4           0  0  0
   -3.6715   -8.9450    8.8336 C   0  0  0  0  0  4           0  0  0
   -6.2124   -4.4338    5.1149 C   0  0  0  0  0  4           0  0  0
   -5.3366   -2.4237    4.9036 C   0  0  0  0  0  4           0  0  0
   -4.5767   -6.7892    7.2814 C   0  0  0  0  0  4           0  0  0
   -5.1739   -3.6633    5.5355 C   0  0  0  0  0  4           0  0  0
   -4.8230   -8.1148    6.8803 C   0  0  0  0  0  4           0  0  0
   -3.4219   -7.6433    9.2505 C   0  0  0  0  0  4           0  0  0
   -3.8711   -6.5695    8.4778 C   0  0  0  0  0  4           0  0  0
   -6.1846   -5.7382    5.6846 C   0  0  0  0  0  4           0  0  0
   -4.3712   -4.4451    6.4366 C   0  0  0  0  0  4           0  0  0
   -4.5286   -1.2155    4.9839 C   0  0  0  0  0  4           0  0  0
   -4.9359   -0.0000    4.1791 C   0  0  0  0  0  4           0  0  0
   -4.3090   -0.0000    2.7860 C   0  0  0  0  0  4           0  0  0
   -2.7814   -0.0000    2.7860 C   0  0  0  0  0  4           0  0  0
   -2.1545   -0.0000    1.3930 C   0  0  0  0  0  4           0  0  0
   -0.6269   -0.0000    1.3930 C   0  0  0  0  0  4           0  0  0
    0.0000    0.0000    0.0000 C   0  0  0  0  0  4           0  0  0
    1.5277    0.0000    0.0000 C   0  0  0  0  0  4           0  0  0
    2.1547    0.0000   -1.3930 C   0  0  0  0  0  4           0  0  0
    3.6822    0.0000   -1.3930 C   0  0  0  0  0  4           0  0  0
    4.3091    0.0000   -2.7860 C   0  0  0  0  0  4           0  0  0
    5.8367    0.0000   -2.7860 C   0  0  0  0  0  4           0  0  0
    6.4636    0.0000   -4.1790 C   0  0  0  0  0  4           0  0  0
    7.9912    0.0000   -4.1790 C   0  0  0  0  0  4           0  0  0
    8.6181    0.0000   -5.5719 C   0  0  0  0  0  4           0  0  0
   10.1456    0.0000   -5.5719 C   0  0  0  0  0  4           0  0  0
   10.7726    0.0000   -6.9649 C   0  0  0  0  0  4           0  0  0
   12.2908    0.0000   -6.8900 C   0  0  0  0  0  4           0  0  0
  1  9  1  0     0  0
  2 10  1  0     0  0
  3 18  2  0     0  0
  4 19  2  0     0  0
  5 20  2  0     0  0
  6  7  1  0     0  0
  6 11  1  0     0  0
  7 12  2  0     0  0
  8 13  1  0     0  0
  8 18  1  0     0  0
  8 19  1  0     0  0
  9 10  1  0     0  0
  9 15  2  0     0  0
 10 16  2  0     0  0
 11 14  2  0     0  0
 11 18  1  0     0  0
 12 14  1  0     0  0
 12 20  1  0     0  0
 13 15  1  0     0  0
 13 17  2  0     0  0
 14 19  1  0     0  0
 16 17  1  0     0  0
 20 21  1  0     0  0
 21 22  1  0     0  0
 22 23  1  0     0  0
 23 24  1  0     0  0
 24 25  1  0     0  0
 25 26  1  0     0  0
 26 27  1  0     0  0
 27 28  1  0     0  0
 28 29  1  0     0  0
 29 30  1  0     0  0
 30 31  1  0     0  0
 31 32  1  0     0  0
 32 33  1  0     0  0
 33 34  1  0     0  0
 34 35  1  0     0  0
 35 36  1  0     0  0
 36 37  1  0     0  0
M  END
> <standard_type>
IC50

> <# Confs.>
25

> <canonical_smiles>
O=C1C2=C(C(C(CCCCCCCCCCCCCCCCC)=O)=NN2)C(N1C3=CC=C(F)C(Cl)=C3)=O

> <standard_relation>
=

> <predicted_activity_value>
5.5376020021010435

> <actual_activity_value>
5.939302159646388

> <Compound>
10

> <publication_ID>
nan

> <standard_units>
nM

> hash
15431654101533179008

$$$$
10_
XXILIB    08252103493D 0   0.00000     0.00000

 37 39  0     1  0            999 V2000
  -14.9998   -0.5055    5.1321 Cl  0  0  0  0  0  1           0  0  0
  -16.2659    1.7700    3.7306 F   0  0  0  0  0  1           0  0  0
  -10.4061    4.4722    3.9518 O   0  0  0  0  0  2           0  0  0
  -10.1082   -0.2187    3.9554 O   0  0  0  0  0  2           0  0  0
   -7.0630   -1.0662    4.0959 O   0  0  0  0  0  2           0  0  0
   -7.4024    3.4014    4.0685 N   0  0  0  0  0  3           0  0  0
   -6.4597    2.4291    4.1115 N   0  0  0  0  0  3           0  0  0
  -10.7100    2.0994    3.9371 N   0  0  1  0  0  3           0  0  0
  -14.1951    0.8360    4.4115 C   0  0  0  0  0  4           0  0  0
  -14.9274    1.8372    3.7833 C   0  0  0  0  0  4           0  0  0
   -8.6470    2.8924    4.0192 C   0  0  0  0  0  4           0  0  0
   -7.1576    1.2707    4.0840 C   0  0  0  0  0  4           0  0  0
  -12.1280    2.0082    3.8829 C   0  0  0  0  0  4           0  0  0
   -8.5315    1.5374    4.0243 C   0  0  0  0  0  4           0  0  0
  -12.8006    0.9162    4.4608 C   0  0  0  0  0  4           0  0  0
  -14.2825    2.9218    3.2018 C   0  0  0  0  0  4           0  0  0
  -12.8890    3.0084    3.2520 C   0  0  0  0  0  4           0  0  0
  -10.0039    3.3201    3.9657 C   0  0  0  0  0  4           0  0  0
   -9.8533    0.9742    3.9693 C   0  0  0  0  0  4           0  0  0
   -6.4484   -0.0000    4.1199 C   0  0  0  0  0  4           0  0  0
   -4.9359   -0.0000    4.1791 C   0  0  0  0  0  4           0  0  0
   -4.3090   -0.0000    2.7860 C   0  0  0  0  0  4           0  0  0
   -2.7814   -0.0000    2.7860 C   0  0  0  0  0  4           0  0  0
   -2.1545   -0.0000    1.3930 C   0  0  0  0  0  4           0  0  0
   -0.6269    0.0000    1.3930 C   0  0  0  0  0  4           0  0  0
    0.0000   -0.0000    0.0000 C   0  0  0  0  0  4           0  0  0
    1.5277    0.0000    0.0000 C   0  0  0  0  0  4           0  0  0
    2.1547    0.0000   -1.3930 C   0  0  0  0  0  4           0  0  0
    3.6822    0.0000   -1.3930 C   0  0  0  0  0  4           0  0  0
    4.3091    0.0000   -2.7860 C   0  0  0  0  0  4           0  0  0
    5.8367    0.0000   -2.7860 C   0  0  0  0  0  4           0  0  0
    6.4636    0.0000   -4.1790 C   0  0  0  0  0  4           0  0  0
    7.9912    0.0000   -4.1790 C   0  0  0  0  0  4           0  0  0
    8.6181    0.0000   -5.5719 C   0  0  0  0  0  4           0  0  0
   10.1456    0.0000   -5.5719 C   0  0  0  0  0  4           0  0  0
   10.7726    0.0000   -6.9649 C   0  0  0  0  0  4           0  0  0
   12.2908    0.0000   -6.8900 C   0  0  0  0  0  4           0  0  0
  1  9  1  0     0  0
  2 10  1  0     0  0
  3 18  2  0     0  0
  4 19  2  0     0  0
  5 20  2  0     0  0
  6  7  1  0     0  0
  6 11  1  0     0  0
  7 12  2  0     0  0
  8 13  1  0     0  0
  8 18  1  0     0  0
  8 19  1  0     0  0
  9 10  1  0     0  0
  9 15  2  0     0  0
 10 16  2  0     0  0
 11 14  2  0     0  0
 11 18  1  0     0  0
 12 14  1  0     0  0
 12 20  1  0     0  0
 13 15  1  0     0  0
 13 17  2  0     0  0
 14 19  1  0     0  0
 16 17  1  0     0  0
 20 21  1  0     0  0
 21 22  1  0     0  0
 22 23  1  0     0  0
 23 24  1  0     0  0
 24 25  1  0     0  0
 25 26  1  0     0  0
 26 27  1  0     0  0
 27 28  1  0     0  0
 28 29  1  0     0  0
 29 30  1  0     0  0
 30 31  1  0     0  0
 31 32  1  0     0  0
 32 33  1  0     0  0
 33 34  1  0     0  0
 34 35  1  0     0  0
 35 36  1  0     0  0
 36 37  1  0     0  0
M  END
> <standard_type>
IC50

> <# Confs.>
25

> <canonical_smiles>
O=C1C2=C(C(C(CCCCCCCCCCCCCCCCC)=O)=NN2)C(N1C3=CC=C(F)C(Cl)=C3)=O

> <standard_relation>
=

> <predicted_activity_value>
5.5376020021010435

> <actual_activity_value>
5.939302159646388

> <Compound>
10

> <publication_ID>
nan

> <standard_units>
nM

> hash
15431654101533179008

$$$$
10_
XXILIB    08252103493D 0   0.00000     0.00000

 37 39  0     1  0            999 V2000
  -14.8945    0.5055    2.4426 Cl  0  0  0  0  0  1           0  0  0
  -16.2663   -1.7700    3.7408 F   0  0  0  0  0  1           0  0  0
  -10.4071   -4.4722    3.9783 O   0  0  0  0  0  2           0  0  0
  -10.1099    0.2187    3.9980 O   0  0  0  0  0  2           0  0  0
   -7.0630    1.0662    4.0959 O   0  0  0  0  0  2           0  0  0
   -7.4035   -3.4014    4.0966 N   0  0  0  0  0  3           0  0  0
   -6.4603   -2.4291    4.1274 N   0  0  0  0  0  3           0  0  0
  -10.7113   -2.0994    3.9692 N   0  0  1  0  0  3           0  0  0
  -14.1486   -0.8360    3.2239 C   0  0  0  0  0  4           0  0  0
  -14.9278   -1.8372    3.7929 C   0  0  0  0  0  4           0  0  0
   -8.6482   -2.8924    4.0485 C   0  0  0  0  0  4           0  0  0
   -7.1583   -1.2707    4.1003 C   0  0  0  0  0  4           0  0  0
  -12.1291   -2.0082    3.9124 C   0  0  0  0  0  4           0  0  0
   -8.5326   -1.5374    4.0524 C   0  0  0  0  0  4           0  0  0
  -12.7546   -0.9162    3.2837 C   0  0  0  0  0  4           0  0  0
  -14.3303   -2.9218    4.4231 C   0  0  0  0  0  4           0  0  0
  -12.9371   -3.0084    4.4819 C   0  0  0  0  0  4           0  0  0
  -10.0051   -3.3201    3.9958 C   0  0  0  0  0  4           0  0  0
   -9.8547   -0.9742    4.0040 C   0  0  0  0  0  4           0  0  0
   -6.4484   -0.0000    4.1199 C   0  0  0  0  0  4           0  0  0
   -4.9359   -0.0000    4.1791 C   0  0  0  0  0  4           0  0  0
   -4.3090   -0.0000    2.7860 C   0  0  0  0  0  4           0  0  0
   -2.7814   -0.0000    2.7860 C   0  0  0  0  0  4           0  0  0
   -2.1545   -0.0000    1.3930 C   0  0  0  0  0  4           0  0  0
   -0.6269    0.0000    1.3930 C   0  0  0  0  0  4           0  0  0
    0.0000   -0.0000    0.0000 C   0  0  0  0  0  4           0  0  0
    1.5277    0.0000    0.0000 C   0  0  0  0  0  4           0  0  0
    2.1547    0.0000   -1.3930 C   0  0  0  0  0  4           0  0  0
    3.6822    0.0000   -1.3930 C   0  0  0  0  0  4           0  0  0
    4.3091    0.0000   -2.7860 C   0  0  0  0  0  4           0  0  0
    5.8367    0.0000   -2.7860 C   0  0  0  0  0  4           0  0  0
    6.4636    0.0000   -4.1790 C   0  0  0  0  0  4           0  0  0
    7.9912    0.0000   -4.1790 C   0  0  0  0  0  4           0  0  0
    8.6181    0.0000   -5.5719 C   0  0  0  0  0  4           0  0  0
   10.1456    0.0000   -5.5719 C   0  0  0  0  0  4           0  0  0
   10.7726    0.0000   -6.9649 C   0  0  0  0  0  4           0  0  0
   12.2908    0.0000   -6.8900 C   0  0  0  0  0  4           0  0  0
  1  9  1  0     0  0
  2 10  1  0     0  0
  3 18  2  0     0  0
  4 19  2  0     0  0
  5 20  2  0     0  0
  6  7  1  0     0  0
  6 11  1  0     0  0
  7 12  2  0     0  0
  8 13  1  0     0  0
  8 18  1  0     0  0
  8 19  1  0     0  0
  9 10  1  0     0  0
  9 15  2  0     0  0
 10 16  2  0     0  0
 11 14  2  0     0  0
 11 18  1  0     0  0
 12 14  1  0     0  0
 12 20  1  0     0  0
 13 15  1  0     0  0
 13 17  2  0     0  0
 14 19  1  0     0  0
 16 17  1  0     0  0
 20 21  1  0     0  0
 21 22  1  0     0  0
 22 23  1  0     0  0
 23 24  1  0     0  0
 24 25  1  0     0  0
 25 26  1  0     0  0
 26 27  1  0     0  0
 27 28  1  0     0  0
 28 29  1  0     0  0
 29 30  1  0     0  0
 30 31  1  0     0  0
 31 32  1  0     0  0
 32 33  1  0     0  0
 33 34  1  0     0  0
 34 35  1  0     0  0
 35 36  1  0     0  0
 36 37  1  0     0  0
M  END
> <standard_type>
IC50

> <# Confs.>
25

> <canonical_smiles>
O=C1C2=C(C(C(CCCCCCCCCCCCCCCCC)=O)=NN2)C(N1C3=CC=C(F)C(Cl)=C3)=O

> <standard_relation>
=

> <predicted_activity_value>
5.5376020021010435

> <actual_activity_value>
5.939302159646388

> <Compound>
10

> <publication_ID>
nan

> <standard_units>
nM

> hash
15431654101533179008

$$$$
10_
XXILIB    08252103493D 0   0.00000     0.00000

 37 39  0     1  0            999 V2000
  -14.8960   -0.5177    2.4393 Cl  0  0  0  0  0  1           0  0  0
  -16.2655    1.7511    3.7516 F   0  0  0  0  0  1           0  0  0
  -10.4061    4.4722    3.9518 O   0  0  0  0  0  2           0  0  0
  -10.1082   -0.2187    3.9554 O   0  0  0  0  0  2           0  0  0
   -7.0630   -1.0662    4.0959 O   0  0  0  0  0  2           0  0  0
   -7.4024    3.4014    4.0685 N   0  0  0  0  0  3           0  0  0
   -6.4597    2.4291    4.1115 N   0  0  0  0  0  3           0  0  0
  -10.7100    2.0994    3.9371 N   0  0  1  0  0  3           0  0  0
  -14.1487    0.8296    3.2093 C   0  0  0  0  0  4           0  0  0
  -14.9269    1.8264    3.7872 C   0  0  0  0  0  4           0  0  0
   -8.6470    2.8924    4.0192 C   0  0  0  0  0  4           0  0  0
   -7.1576    1.2707    4.0840 C   0  0  0  0  0  4           0  0  0
  -12.1280    2.0082    3.8829 C   0  0  0  0  0  4           0  0  0
   -8.5315    1.5374    4.0243 C   0  0  0  0  0  4           0  0  0
  -12.7546    0.9179    3.2524 C   0  0  0  0  0  4           0  0  0
  -14.3283    2.9143    4.4106 C   0  0  0  0  0  4           0  0  0
  -12.9349    3.0050    4.4597 C   0  0  0  0  0  4           0  0  0
  -10.0039    3.3201    3.9657 C   0  0  0  0  0  4           0  0  0
   -9.8533    0.9742    3.9693 C   0  0  0  0  0  4           0  0  0
   -6.4484   -0.0000    4.1199 C   0  0  0  0  0  4           0  0  0
   -4.9359   -0.0000    4.1791 C   0  0  0  0  0  4           0  0  0
   -4.3090   -0.0000    2.7860 C   0  0  0  0  0  4           0  0  0
   -2.7814   -0.0000    2.7860 C   0  0  0  0  0  4           0  0  0
   -2.1545   -0.0000    1.3930 C   0  0  0  0  0  4           0  0  0
   -0.6269    0.0000    1.3930 C   0  0  0  0  0  4           0  0  0
    0.0000   -0.0000    0.0000 C   0  0  0  0  0  4           0  0  0
    1.5277    0.0000    0.0000 C   0  0  0  0  0  4           0  0  0
    2.1547    0.0000   -1.3930 C   0  0  0  0  0  4           0  0  0
    3.6822    0.0000   -1.3930 C   0  0  0  0  0  4           0  0  0
    4.3091    0.0000   -2.7860 C   0  0  0  0  0  4           0  0  0
    5.8367    0.0000   -2.7860 C   0  0  0  0  0  4           0  0  0
    6.4636    0.0000   -4.1790 C   0  0  0  0  0  4           0  0  0
    7.9912    0.0000   -4.1790 C   0  0  0  0  0  4           0  0  0
    8.6181    0.0000   -5.5719 C   0  0  0  0  0  4           0  0  0
   10.1456    0.0000   -5.5719 C   0  0  0  0  0  4           0  0  0
   10.7726    0.0000   -6.9649 C   0  0  0  0  0  4           0  0  0
   12.2908    0.0000   -6.8900 C   0  0  0  0  0  4           0  0  0
  1  9  1  0     0  0
  2 10  1  0     0  0
  3 18  2  0     0  0
  4 19  2  0     0  0
  5 20  2  0     0  0
  6  7  1  0     0  0
  6 11  1  0     0  0
  7 12  2  0     0  0
  8 13  1  0     0  0
  8 18  1  0     0  0
  8 19  1  0     0  0
  9 10  1  0     0  0
  9 15  2  0     0  0
 10 16  2  0     0  0
 11 14  2  0     0  0
 11 18  1  0     0  0
 12 14  1  0     0  0
 12 20  1  0     0  0
 13 15  1  0     0  0
 13 17  2  0     0  0
 14 19  1  0     0  0
 16 17  1  0     0  0
 20 21  1  0     0  0
 21 22  1  0     0  0
 22 23  1  0     0  0
 23 24  1  0     0  0
 24 25  1  0     0  0
 25 26  1  0     0  0
 26 27  1  0     0  0
 27 28  1  0     0  0
 28 29  1  0     0  0
 29 30  1  0     0  0
 30 31  1  0     0  0
 31 32  1  0     0  0
 32 33  1  0     0  0
 33 34  1  0     0  0
 34 35  1  0     0  0
 35 36  1  0     0  0
 36 37  1  0     0  0
M  END
> <standard_type>
IC50

> <# Confs.>
25

> <canonical_smiles>
O=C1C2=C(C(C(CCCCCCCCCCCCCCCCC)=O)=NN2)C(N1C3=CC=C(F)C(Cl)=C3)=O

> <standard_relation>
=

> <predicted_activity_value>
5.5376020021010435

> <actual_activity_value>
5.939302159646388

> <Compound>
10

> <publication_ID>
nan

> <standard_units>
nM

> hash
15431654101533179008

$$$$
10_
XXILIB    08252103493D 0   0.00000     0.00000

 37 39  0     1  0            999 V2000
  -15.0015    0.5177    5.1353 Cl  0  0  0  0  0  1           0  0  0
  -16.2643   -1.7511    3.7199 F   0  0  0  0  0  1           0  0  0
  -10.4071   -4.4722    3.9783 O   0  0  0  0  0  2           0  0  0
  -10.1099    0.2187    3.9980 O   0  0  0  0  0  2           0  0  0
   -7.0630    1.0662    4.0959 O   0  0  0  0  0  2           0  0  0
   -7.4035   -3.4014    4.0966 N   0  0  0  0  0  3           0  0  0
   -6.4603   -2.4291    4.1274 N   0  0  0  0  0  3           0  0  0
  -10.7113   -2.0994    3.9692 N   0  0  1  0  0  3           0  0  0
  -14.1963   -0.8296    4.4261 C   0  0  0  0  0  4           0  0  0
  -14.9269   -1.8264    3.7890 C   0  0  0  0  0  4           0  0  0
   -8.6482   -2.8924    4.0485 C   0  0  0  0  0  4           0  0  0
   -7.1583   -1.2707    4.1003 C   0  0  0  0  0  4           0  0  0
  -12.1291   -2.0082    3.9124 C   0  0  0  0  0  4           0  0  0
   -8.5326   -1.5374    4.0524 C   0  0  0  0  0  4           0  0  0
  -12.8031   -0.9179    4.4920 C   0  0  0  0  0  4           0  0  0
  -14.2815   -2.9143    3.2144 C   0  0  0  0  0  4           0  0  0
  -12.8885   -3.0050    3.2743 C   0  0  0  0  0  4           0  0  0
  -10.0051   -3.3201    3.9958 C   0  0  0  0  0  4           0  0  0
   -9.8547   -0.9742    4.0040 C   0  0  0  0  0  4           0  0  0
   -6.4484   -0.0000    4.1199 C   0  0  0  0  0  4           0  0  0
   -4.9359   -0.0000    4.1791 C   0  0  0  0  0  4           0  0  0
   -4.3090   -0.0000    2.7860 C   0  0  0  0  0  4           0  0  0
   -2.7814   -0.0000    2.7860 C   0  0  0  0  0  4           0  0  0
   -2.1545   -0.0000    1.3930 C   0  0  0  0  0  4           0  0  0
   -0.6269    0.0000    1.3930 C   0  0  0  0  0  4           0  0  0
    0.0000   -0.0000    0.0000 C   0  0  0  0  0  4           0  0  0
    1.5277    0.0000    0.0000 C   0  0  0  0  0  4           0  0  0
    2.1547    0.0000   -1.3930 C   0  0  0  0  0  4           0  0  0
    3.6822    0.0000   -1.3930 C   0  0  0  0  0  4           0  0  0
    4.3091    0.0000   -2.7860 C   0  0  0  0  0  4           0  0  0
    5.8367    0.0000   -2.7860 C   0  0  0  0  0  4           0  0  0
    6.4636    0.0000   -4.1790 C   0  0  0  0  0  4           0  0  0
    7.9912    0.0000   -4.1790 C   0  0  0  0  0  4           0  0  0
    8.6181    0.0000   -5.5719 C   0  0  0  0  0  4           0  0  0
   10.1456    0.0000   -5.5719 C   0  0  0  0  0  4           0  0  0
   10.7726    0.0000   -6.9649 C   0  0  0  0  0  4           0  0  0
   12.2908    0.0000   -6.8900 C   0  0  0  0  0  4           0  0  0
  1  9  1  0     0  0
  2 10  1  0     0  0
  3 18  2  0     0  0
  4 19  2  0     0  0
  5 20  2  0     0  0
  6  7  1  0     0  0
  6 11  1  0     0  0
  7 12  2  0     0  0
  8 13  1  0     0  0
  8 18  1  0     0  0
  8 19  1  0     0  0
  9 10  1  0     0  0
  9 15  2  0     0  0
 10 16  2  0     0  0
 11 14  2  0     0  0
 11 18  1  0     0  0
 12 14  1  0     0  0
 12 20  1  0     0  0
 13 15  1  0     0  0
 13 17  2  0     0  0
 14 19  1  0     0  0
 16 17  1  0     0  0
 20 21  1  0     0  0
 21 22  1  0     0  0
 22 23  1  0     0  0
 23 24  1  0     0  0
 24 25  1  0     0  0
 25 26  1  0     0  0
 26 27  1  0     0  0
 27 28  1  0     0  0
 28 29  1  0     0  0
 29 30  1  0     0  0
 30 31  1  0     0  0
 31 32  1  0     0  0
 32 33  1  0     0  0
 33 34  1  0     0  0
 34 35  1  0     0  0
 35 36  1  0     0  0
 36 37  1  0     0  0
M  END
> <standard_type>
IC50

> <# Confs.>
25

> <canonical_smiles>
O=C1C2=C(C(C(CCCCCCCCCCCCCCCCC)=O)=NN2)C(N1C3=CC=C(F)C(Cl)=C3)=O

> <standard_relation>
=

> <predicted_activity_value>
5.5376020021010435

> <actual_activity_value>
5.939302159646388

> <Compound>
10

> <publication_ID>
nan

> <standard_units>
nM

> hash
15431654101533179008

$$$$
10_
XXILIB    08252103493D 0   0.00000     0.00000

 37 39  0     1  0            999 V2000
   -1.0987    8.2291    8.6515 Cl  0  0  0  0  0  1           0  0  0
   -3.2852    9.9887    9.5830 F   0  0  0  0  0  1           0  0  0
   -7.0017    6.6282    5.5109 O   0  0  0  0  0  2           0  0  0
   -3.3818    4.0411    7.0260 O   0  0  0  0  0  2           0  0  0
   -3.5211    1.1763    5.6900 O   0  0  0  0  0  2           0  0  0
   -6.9654    3.6787    4.2938 N   0  0  0  0  0  3           0  0  0
   -6.4482    2.4367    4.1329 N   0  0  0  0  0  3           0  0  0
   -5.0475    5.6853    6.5182 N   0  0  1  0  0  3           0  0  0
   -2.7812    8.0330    8.3398 C   0  0  0  0  0  4           0  0  0
   -3.6986    8.9467    8.8467 C   0  0  0  0  0  4           0  0  0
   -6.2286    4.4243    5.1375 C   0  0  0  0  0  4           0  0  0
   -5.3455    2.4184    4.9161 C   0  0  0  0  0  4           0  0  0
   -4.5930    6.7796    7.3041 C   0  0  0  0  0  4           0  0  0
   -5.1894    3.6542    5.5571 C   0  0  0  0  0  4           0  0  0
   -3.2229    6.9510    7.5735 C   0  0  0  0  0  4           0  0  0
   -5.0567    8.7933    8.5967 C   0  0  0  0  0  4           0  0  0
   -5.5027    7.7153    7.8278 C   0  0  0  0  0  4           0  0  0
   -6.2012    5.7284    5.7077 C   0  0  0  0  0  4           0  0  0
   -4.3903    4.4338    6.4633 C   0  0  0  0  0  4           0  0  0
   -4.5286    1.2155    4.9839 C   0  0  0  0  0  4           0  0  0
   -4.9359    0.0000    4.1791 C   0  0  0  0  0  4           0  0  0
   -4.3090    0.0000    2.7860 C   0  0  0  0  0  4           0  0  0
   -2.7814    0.0000    2.7860 C   0  0  0  0  0  4           0  0  0
   -2.1545    0.0000    1.3930 C   0  0  0  0  0  4           0  0  0
   -0.6269    0.0000    1.3930 C   0  0  0  0  0  4           0  0  0
    0.0000    0.0000    0.0000 C   0  0  0  0  0  4           0  0  0
    1.5277    0.0000    0.0000 C   0  0  0  0  0  4           0  0  0
    2.1547    0.0000   -1.3930 C   0  0  0  0  0  4           0  0  0
    3.6822    0.0000   -1.3930 C   0  0  0  0  0  4           0  0  0
    4.3091    0.0000   -2.7860 C   0  0  0  0  0  4           0  0  0
    5.8367    0.0000   -2.7860 C   0  0  0  0  0  4           0  0  0
    6.4636    0.0000   -4.1790 C   0  0  0  0  0  4           0  0  0
    7.9912    0.0000   -4.1790 C   0  0  0  0  0  4           0  0  0
    8.6181    0.0000   -5.5719 C   0  0  0  0  0  4           0  0  0
   10.1456    0.0000   -5.5719 C   0  0  0  0  0  4           0  0  0
   10.7726    0.0000   -6.9649 C   0  0  0  0  0  4           0  0  0
   12.2908    0.0000   -6.8900 C   0  0  0  0  0  4           0  0  0
  1  9  1  0     0  0
  2 10  1  0     0  0
  3 18  2  0     0  0
  4 19  2  0     0  0
  5 20  2  0     0  0
  6  7  1  0     0  0
  6 11  1  0     0  0
  7 12  2  0     0  0
  8 13  1  0     0  0
  8 18  1  0     0  0
  8 19  1  0     0  0
  9 10  1  0     0  0
  9 15  2  0     0  0
 10 16  2  0     0  0
 11 14  2  0     0  0
 11 18  1  0     0  0
 12 14  1  0     0  0
 12 20  1  0     0  0
 13 15  1  0     0  0
 13 17  2  0     0  0
 14 19  1  0     0  0
 16 17  1  0     0  0
 20 21  1  0     0  0
 21 22  1  0     0  0
 22 23  1  0     0  0
 23 24  1  0     0  0
 24 25  1  0     0  0
 25 26  1  0     0  0
 26 27  1  0     0  0
 27 28  1  0     0  0
 28 29  1  0     0  0
 29 30  1  0     0  0
 30 31  1  0     0  0
 31 32  1  0     0  0
 32 33  1  0     0  0
 33 34  1  0     0  0
 34 35  1  0     0  0
 35 36  1  0     0  0
 36 37  1  0     0  0
M  END
> <standard_type>
IC50

> <# Confs.>
25

> <canonical_smiles>
O=C1C2=C(C(C(CCCCCCCCCCCCCCCCC)=O)=NN2)C(N1C3=CC=C(F)C(Cl)=C3)=O

> <standard_relation>
=

> <predicted_activity_value>
5.5376020021010435

> <actual_activity_value>
5.939302159646388

> <Compound>
10

> <publication_ID>
nan

> <standard_units>
nM

> hash
15431654101533179008

$$$$
10_
XXILIB    08252103493D 0   0.00000     0.00000

 37 39  0     1  0            999 V2000
    0.4514    8.6721   15.0511 Cl  0  0  0  0  0  1           0  0  0
    0.9933   10.9507   13.2457 F   0  0  0  0  0  1           0  0  0
   -2.1068    5.3523   12.2479 O   0  0  0  0  0  2           0  0  0
    0.4054    6.6303    8.4864 O   0  0  0  0  0  2           0  0  0
    0.0355    4.4679    6.2064 O   0  0  0  0  0  2           0  0  0
   -2.3247    3.2853    9.8267 N   0  0  0  0  0  3           0  0  0
   -2.0475    2.8458    8.5753 N   0  0  0  0  0  3           0  0  0
   -0.7145    6.3647   10.5866 N   0  0  1  0  0  3           0  0  0
    0.2842    8.6895   13.3370 C   0  0  0  0  0  4           0  0  0
    0.5779    9.8416   12.6162 C   0  0  0  0  0  4           0  0  0
   -1.7084    4.4503   10.0979 C   0  0  0  0  0  4           0  0  0
   -1.2208    3.7823    8.0563 C   0  0  0  0  0  4           0  0  0
   -0.2835    7.5344   11.2706 C   0  0  0  0  0  4           0  0  0
   -0.9931    4.7971    8.9947 C   0  0  0  0  0  4           0  0  0
   -0.1477    7.5393   12.6708 C   0  0  0  0  0  4           0  0  0
    0.4457    9.8598   11.2332 C   0  0  0  0  0  4           0  0  0
    0.0181    8.7112   10.5624 C   0  0  0  0  0  4           0  0  0
   -1.5785    5.4019   11.1489 C   0  0  0  0  0  4           0  0  0
   -0.3240    6.0405    9.2663 C   0  0  0  0  0  4           0  0  0
   -0.7178    3.6282    6.6990 C   0  0  0  0  0  4           0  0  0
   -1.1251    2.4127    5.8942 C   0  0  0  0  0  4           0  0  0
   -0.4982    2.4127    4.5010 C   0  0  0  0  0  4           0  0  0
   -0.8760    1.2064    3.6435 C   0  0  0  0  0  4           0  0  0
   -0.2491    1.2064    2.2505 C   0  0  0  0  0  4           0  0  0
   -0.6269    0.0000    1.3930 C   0  0  0  0  0  4           0  0  0
    0.0000    0.0000    0.0000 C   0  0  0  0  0  4           0  0  0
    1.5277    0.0000    0.0000 C   0  0  0  0  0  4           0  0  0
    2.1547    0.0000   -1.3930 C   0  0  0  0  0  4           0  0  0
    3.6822    0.0000   -1.3930 C   0  0  0  0  0  4           0  0  0
    4.3091    0.0000   -2.7860 C   0  0  0  0  0  4           0  0  0
    5.8367    0.0000   -2.7860 C   0  0  0  0  0  4           0  0  0
    6.4636    0.0000   -4.1790 C   0  0  0  0  0  4           0  0  0
    7.9912    0.0000   -4.1790 C   0  0  0  0  0  4           0  0  0
    8.6181    0.0000   -5.5719 C   0  0  0  0  0  4           0  0  0
   10.1456    0.0000   -5.5719 C   0  0  0  0  0  4           0  0  0
   10.7726    0.0000   -6.9649 C   0  0  0  0  0  4           0  0  0
   12.2908    0.0000   -6.8900 C   0  0  0  0  0  4           0  0  0
  1  9  1  0     0  0
  2 10  1  0     0  0
  3 18  2  0     0  0
  4 19  2  0     0  0
  5 20  2  0     0  0
  6  7  1  0     0  0
  6 11  1  0     0  0
  7 12  2  0     0  0
  8 13  1  0     0  0
  8 18  1  0     0  0
  8 19  1  0     0  0
  9 10  1  0     0  0
  9 15  2  0     0  0
 10 16  2  0     0  0
 11 14  2  0     0  0
 11 18  1  0     0  0
 12 14  1  0     0  0
 12 20  1  0     0  0
 13 15  1  0     0  0
 13 17  2  0     0  0
 14 19  1  0     0  0
 16 17  1  0     0  0
 20 21  1  0     0  0
 21 22  1  0     0  0
 22 23  1  0     0  0
 23 24  1  0     0  0
 24 25  1  0     0  0
 25 26  1  0     0  0
 26 27  1  0     0  0
 27 28  1  0     0  0
 28 29  1  0     0  0
 29 30  1  0     0  0
 30 31  1  0     0  0
 31 32  1  0     0  0
 32 33  1  0     0  0
 33 34  1  0     0  0
 34 35  1  0     0  0
 35 36  1  0     0  0
 36 37  1  0     0  0
M  END
> <standard_type>
IC50

> <# Confs.>
25

> <canonical_smiles>
O=C1C2=C(C(C(CCCCCCCCCCCCCCCCC)=O)=NN2)C(N1C3=CC=C(F)C(Cl)=C3)=O

> <standard_relation>
=

> <predicted_activity_value>
5.5376020021010435

> <actual_activity_value>
5.939302159646388

> <Compound>
10

> <publication_ID>
nan

> <standard_units>
nM

> hash
15431654101533179008

$$$$
10_
XXILIB    08252103493D 0   0.00000     0.00000

 37 39  0     1  0            999 V2000
  -15.4096    1.3700    7.9128 Cl  0  0  0  0  0  1           0  0  0
  -16.3297    0.0169    5.4494 F   0  0  0  0  0  1           0  0  0
  -10.5815    0.0132    8.4338 O   0  0  0  0  0  2           0  0  0
  -10.1005    0.0213    3.7582 O   0  0  0  0  0  2           0  0  0
   -7.0213   -0.0000    3.0305 O   0  0  0  0  0  2           0  0  0
   -7.5360    0.0140    7.4813 N   0  0  0  0  0  3           0  0  0
   -6.5550    0.0080    6.5467 N   0  0  0  0  0  3           0  0  0
  -10.7928    0.0161    6.0509 N   0  0  1  0  0  3           0  0  0
  -14.4197    0.6200    6.7194 C   0  0  0  0  0  4           0  0  0
  -14.9976    0.0196    5.6064 C   0  0  0  0  0  4           0  0  0
   -8.7607    0.0147    6.9240 C   0  0  0  0  0  4           0  0  0
   -7.2076    0.0081    5.3619 C   0  0  0  0  0  4           0  0  0
  -12.2071    0.0148    5.9043 C   0  0  0  0  0  4           0  0  0
   -8.5922    0.0141    5.5747 C   0  0  0  0  0  4           0  0  0
  -13.0306    0.6172    6.8728 C   0  0  0  0  0  4           0  0  0
  -14.2029   -0.5854    4.6405 C   0  0  0  0  0  4           0  0  0
  -12.8135   -0.5872    4.7875 C   0  0  0  0  0  4           0  0  0
  -10.1343    0.0150    7.2983 C   0  0  0  0  0  4           0  0  0
   -9.8921    0.0174    4.9601 C   0  0  0  0  0  4           0  0  0
   -6.4484   -0.0000    4.1199 C   0  0  0  0  0  4           0  0  0
   -4.9359   -0.0000    4.1791 C   0  0  0  0  0  4           0  0  0
   -4.3090   -0.0000    2.7860 C   0  0  0  0  0  4           0  0  0
   -2.7814   -0.0000    2.7860 C   0  0  0  0  0  4           0  0  0
   -2.1545   -0.0000    1.3930 C   0  0  0  0  0  4           0  0  0
   -0.6269    0.0000    1.3930 C   0  0  0  0  0  4           0  0  0
    0.0000   -0.0000    0.0000 C   0  0  0  0  0  4           0  0  0
    1.5277    0.0000    0.0000 C   0  0  0  0  0  4           0  0  0
    2.1547   -1.2064    0.6965 C   0  0  0  0  0  4           0  0  0
    3.6822   -1.2064    0.6965 C   0  0  0  0  0  4           0  0  0
    4.3091   -2.4127    1.3930 C   0  0  0  0  0  4           0  0  0
    5.8367   -2.4127    1.3930 C   0  0  0  0  0  4           0  0  0
    6.4636   -3.6191    2.0895 C   0  0  0  0  0  4           0  0  0
    7.9912   -3.6191    2.0895 C   0  0  0  0  0  4           0  0  0
    8.6181   -4.8254    2.7860 C   0  0  0  0  0  4           0  0  0
   10.1456   -4.8254    2.7860 C   0  0  0  0  0  4           0  0  0
   10.7726   -6.0318    3.4825 C   0  0  0  0  0  4           0  0  0
   12.2908   -5.9669    3.4450 C   0  0  0  0  0  4           0  0  0
  1  9  1  0     0  0
  2 10  1  0     0  0
  3 18  2  0     0  0
  4 19  2  0     0  0
  5 20  2  0     0  0
  6  7  1  0     0  0
  6 11  1  0     0  0
  7 12  2  0     0  0
  8 13  1  0     0  0
  8 18  1  0     0  0
  8 19  1  0     0  0
  9 10  1  0     0  0
  9 15  2  0     0  0
 10 16  2  0     0  0
 11 14  2  0     0  0
 11 18  1  0     0  0
 12 14  1  0     0  0
 12 20  1  0     0  0
 13 15  1  0     0  0
 13 17  2  0     0  0
 14 19  1  0     0  0
 16 17  1  0     0  0
 20 21  1  0     0  0
 21 22  1  0     0  0
 22 23  1  0     0  0
 23 24  1  0     0  0
 24 25  1  0     0  0
 25 26  1  0     0  0
 26 27  1  0     0  0
 27 28  1  0     0  0
 28 29  1  0     0  0
 29 30  1  0     0  0
 30 31  1  0     0  0
 31 32  1  0     0  0
 32 33  1  0     0  0
 33 34  1  0     0  0
 34 35  1  0     0  0
 35 36  1  0     0  0
 36 37  1  0     0  0
M  END
> <standard_type>
IC50

> <# Confs.>
25

> <canonical_smiles>
O=C1C2=C(C(C(CCCCCCCCCCCCCCCCC)=O)=NN2)C(N1C3=CC=C(F)C(Cl)=C3)=O

> <standard_relation>
=

> <predicted_activity_value>
5.5376020021010435

> <actual_activity_value>
5.939302159646388

> <Compound>
10

> <publication_ID>
nan

> <standard_units>
nM

> hash
15431654101533179008

$$$$
10_
XXILIB    08252103493D 0   0.00000     0.00000

 37 39  0     1  0            999 V2000
  -15.4096    1.3700    7.9128 Cl  0  0  0  0  0  1           0  0  0
  -16.3297    0.0169    5.4494 F   0  0  0  0  0  1           0  0  0
  -10.5815    0.0132    8.4338 O   0  0  0  0  0  2           0  0  0
  -10.1005    0.0213    3.7582 O   0  0  0  0  0  2           0  0  0
   -7.0213   -0.0000    3.0305 O   0  0  0  0  0  2           0  0  0
   -7.5360    0.0140    7.4813 N   0  0  0  0  0  3           0  0  0
   -6.5550    0.0080    6.5467 N   0  0  0  0  0  3           0  0  0
  -10.7928    0.0161    6.0509 N   0  0  1  0  0  3           0  0  0
  -14.4197    0.6200    6.7194 C   0  0  0  0  0  4           0  0  0
  -14.9976    0.0196    5.6064 C   0  0  0  0  0  4           0  0  0
   -8.7607    0.0147    6.9240 C   0  0  0  0  0  4           0  0  0
   -7.2076    0.0081    5.3619 C   0  0  0  0  0  4           0  0  0
  -12.2071    0.0148    5.9043 C   0  0  0  0  0  4           0  0  0
   -8.5922    0.0141    5.5747 C   0  0  0  0  0  4           0  0  0
  -13.0306    0.6172    6.8728 C   0  0  0  0  0  4           0  0  0
  -14.2029   -0.5854    4.6405 C   0  0  0  0  0  4           0  0  0
  -12.8135   -0.5872    4.7875 C   0  0  0  0  0  4           0  0  0
  -10.1343    0.0150    7.2983 C   0  0  0  0  0  4           0  0  0
   -9.8921    0.0174    4.9601 C   0  0  0  0  0  4           0  0  0
   -6.4484   -0.0000    4.1199 C   0  0  0  0  0  4           0  0  0
   -4.9359   -0.0000    4.1791 C   0  0  0  0  0  4           0  0  0
   -4.3090   -0.0000    2.7860 C   0  0  0  0  0  4           0  0  0
   -2.7814   -0.0000    2.7860 C   0  0  0  0  0  4           0  0  0
   -2.1545   -0.0000    1.3930 C   0  0  0  0  0  4           0  0  0
   -0.6269    0.0000    1.3930 C   0  0  0  0  0  4           0  0  0
    0.0000   -0.0000    0.0000 C   0  0  0  0  0  4           0  0  0
    1.5277   -0.0000   -0.0000 C   0  0  0  0  0  4           0  0  0
    2.1547    0.0000   -1.3930 C   0  0  0  0  0  4           0  0  0
    1.7768    1.2064   -2.2505 C   0  0  0  0  0  4           0  0  0
    2.4037    1.2064   -3.6435 C   0  0  0  0  0  4           0  0  0
    2.0259    2.4127   -4.5010 C   0  0  0  0  0  4           0  0  0
    2.6528    2.4127   -5.8940 C   0  0  0  0  0  4           0  0  0
    2.2750    3.6191   -6.7516 C   0  0  0  0  0  4           0  0  0
    2.9019    3.6191   -8.1445 C   0  0  0  0  0  4           0  0  0
    2.5240    4.8254   -9.0021 C   0  0  0  0  0  4           0  0  0
    3.1510    4.8254  -10.3951 C   0  0  0  0  0  4           0  0  0
    2.7334    6.0511  -11.1914 C   0  0  0  0  0  4           0  0  0
  1  9  1  0     0  0
  2 10  1  0     0  0
  3 18  2  0     0  0
  4 19  2  0     0  0
  5 20  2  0     0  0
  6  7  1  0     0  0
  6 11  1  0     0  0
  7 12  2  0     0  0
  8 13  1  0     0  0
  8 18  1  0     0  0
  8 19  1  0     0  0
  9 10  1  0     0  0
  9 15  2  0     0  0
 10 16  2  0     0  0
 11 14  2  0     0  0
 11 18  1  0     0  0
 12 14  1  0     0  0
 12 20  1  0     0  0
 13 15  1  0     0  0
 13 17  2  0     0  0
 14 19  1  0     0  0
 16 17  1  0     0  0
 20 21  1  0     0  0
 21 22  1  0     0  0
 22 23  1  0     0  0
 23 24  1  0     0  0
 24 25  1  0     0  0
 25 26  1  0     0  0
 26 27  1  0     0  0
 27 28  1  0     0  0
 28 29  1  0     0  0
 29 30  1  0     0  0
 30 31  1  0     0  0
 31 32  1  0     0  0
 32 33  1  0     0  0
 33 34  1  0     0  0
 34 35  1  0     0  0
 35 36  1  0     0  0
 36 37  1  0     0  0
M  END
> <standard_type>
IC50

> <# Confs.>
25

> <canonical_smiles>
O=C1C2=C(C(C(CCCCCCCCCCCCCCCCC)=O)=NN2)C(N1C3=CC=C(F)C(Cl)=C3)=O

> <standard_relation>
=

> <predicted_activity_value>
5.5376020021010435

> <actual_activity_value>
5.939302159646388

> <Compound>
10

> <publication_ID>
nan

> <standard_units>
nM

> hash
15431654101533179008

$$$$
10_
XXILIB    08252103493D 0   0.00000     0.00000

 37 39  0     1  0            999 V2000
  -15.4096    1.3700    7.9128 Cl  0  0  0  0  0  1           0  0  0
  -16.3297    0.0169    5.4494 F   0  0  0  0  0  1           0  0  0
  -10.5815    0.0132    8.4338 O   0  0  0  0  0  2           0  0  0
  -10.1005    0.0213    3.7582 O   0  0  0  0  0  2           0  0  0
   -7.0213   -0.0000    3.0305 O   0  0  0  0  0  2           0  0  0
   -7.5360    0.0140    7.4813 N   0  0  0  0  0  3           0  0  0
   -6.5550    0.0080    6.5467 N   0  0  0  0  0  3           0  0  0
  -10.7928    0.0161    6.0509 N   0  0  1  0  0  3           0  0  0
  -14.4197    0.6200    6.7194 C   0  0  0  0  0  4           0  0  0
  -14.9976    0.0196    5.6064 C   0  0  0  0  0  4           0  0  0
   -8.7607    0.0147    6.9240 C   0  0  0  0  0  4           0  0  0
   -7.2076    0.0081    5.3619 C   0  0  0  0  0  4           0  0  0
  -12.2071    0.0148    5.9043 C   0  0  0  0  0  4           0  0  0
   -8.5922    0.0141    5.5747 C   0  0  0  0  0  4           0  0  0
  -13.0306    0.6172    6.8728 C   0  0  0  0  0  4           0  0  0
  -14.2029   -0.5854    4.6405 C   0  0  0  0  0  4           0  0  0
  -12.8135   -0.5872    4.7875 C   0  0  0  0  0  4           0  0  0
  -10.1343    0.0150    7.2983 C   0  0  0  0  0  4           0  0  0
   -9.8921    0.0174    4.9601 C   0  0  0  0  0  4           0  0  0
   -6.4484   -0.0000    4.1199 C   0  0  0  0  0  4           0  0  0
   -4.9359   -0.0000    4.1791 C   0  0  0  0  0  4           0  0  0
   -4.3090   -0.0000    2.7860 C   0  0  0  0  0  4           0  0  0
   -2.7814   -0.0000    2.7860 C   0  0  0  0  0  4           0  0  0
   -2.1545   -0.0000    1.3930 C   0  0  0  0  0  4           0  0  0
   -0.6269    0.0000    1.3930 C   0  0  0  0  0  4           0  0  0
    0.0000   -0.0000    0.0000 C   0  0  0  0  0  4           0  0  0
    1.5277   -0.0000   -0.0000 C   0  0  0  0  0  4           0  0  0
    2.1547    0.0000   -1.3930 C   0  0  0  0  0  4           0  0  0
    3.6822    0.0000   -1.3930 C   0  0  0  0  0  4           0  0  0
    4.3091   -1.2064   -0.6965 C   0  0  0  0  0  4           0  0  0
    5.8367   -1.2064   -0.6965 C   0  0  0  0  0  4           0  0  0
    6.4636   -2.4127   -0.0000 C   0  0  0  0  0  4           0  0  0
    7.9912   -2.4127   -0.0000 C   0  0  0  0  0  4           0  0  0
    8.6181   -3.6191    0.6965 C   0  0  0  0  0  4           0  0  0
   10.1456   -3.6191    0.6965 C   0  0  0  0  0  4           0  0  0
   10.7726   -4.8254    1.3930 C   0  0  0  0  0  4           0  0  0
   12.2908   -4.7606    1.3555 C   0  0  0  0  0  4           0  0  0
  1  9  1  0     0  0
  2 10  1  0     0  0
  3 18  2  0     0  0
  4 19  2  0     0  0
  5 20  2  0     0  0
  6  7  1  0     0  0
  6 11  1  0     0  0
  7 12  2  0     0  0
  8 13  1  0     0  0
  8 18  1  0     0  0
  8 19  1  0     0  0
  9 10  1  0     0  0
  9 15  2  0     0  0
 10 16  2  0     0  0
 11 14  2  0     0  0
 11 18  1  0     0  0
 12 14  1  0     0  0
 12 20  1  0     0  0
 13 15  1  0     0  0
 13 17  2  0     0  0
 14 19  1  0     0  0
 16 17  1  0     0  0
 20 21  1  0     0  0
 21 22  1  0     0  0
 22 23  1  0     0  0
 23 24  1  0     0  0
 24 25  1  0     0  0
 25 26  1  0     0  0
 26 27  1  0     0  0
 27 28  1  0     0  0
 28 29  1  0     0  0
 29 30  1  0     0  0
 30 31  1  0     0  0
 31 32  1  0     0  0
 32 33  1  0     0  0
 33 34  1  0     0  0
 34 35  1  0     0  0
 35 36  1  0     0  0
 36 37  1  0     0  0
M  END
> <standard_type>
IC50

> <# Confs.>
25

> <canonical_smiles>
O=C1C2=C(C(C(CCCCCCCCCCCCCCCCC)=O)=NN2)C(N1C3=CC=C(F)C(Cl)=C3)=O

> <standard_relation>
=

> <predicted_activity_value>
5.5376020021010435

> <actual_activity_value>
5.939302159646388

> <Compound>
10

> <publication_ID>
nan

> <standard_units>
nM

> hash
15431654101533179008

$$$$
10_
XXILIB    08252103493D 0   0.00000     0.00000

 37 39  0     1  0            999 V2000
  -15.4096    1.3700    7.9128 Cl  0  0  0  0  0  1           0  0  0
  -16.3297    0.0169    5.4494 F   0  0  0  0  0  1           0  0  0
  -10.5815    0.0132    8.4338 O   0  0  0  0  0  2           0  0  0
  -10.1005    0.0213    3.7582 O   0  0  0  0  0  2           0  0  0
   -7.0213   -0.0000    3.0305 O   0  0  0  0  0  2           0  0  0
   -7.5360    0.0140    7.4813 N   0  0  0  0  0  3           0  0  0
   -6.5550    0.0080    6.5467 N   0  0  0  0  0  3           0  0  0
  -10.7928    0.0161    6.0509 N   0  0  1  0  0  3           0  0  0
  -14.4197    0.6200    6.7194 C   0  0  0  0  0  4           0  0  0
  -14.9976    0.0196    5.6064 C   0  0  0  0  0  4           0  0  0
   -8.7607    0.0147    6.9240 C   0  0  0  0  0  4           0  0  0
   -7.2076    0.0081    5.3619 C   0  0  0  0  0  4           0  0  0
  -12.2071    0.0148    5.9043 C   0  0  0  0  0  4           0  0  0
   -8.5922    0.0141    5.5747 C   0  0  0  0  0  4           0  0  0
  -13.0306    0.6172    6.8728 C   0  0  0  0  0  4           0  0  0
  -14.2029   -0.5854    4.6405 C   0  0  0  0  0  4           0  0  0
  -12.8135   -0.5872    4.7875 C   0  0  0  0  0  4           0  0  0
  -10.1343    0.0150    7.2983 C   0  0  0  0  0  4           0  0  0
   -9.8921    0.0174    4.9601 C   0  0  0  0  0  4           0  0  0
   -6.4484   -0.0000    4.1199 C   0  0  0  0  0  4           0  0  0
   -4.9359   -0.0000    4.1791 C   0  0  0  0  0  4           0  0  0
   -4.3090   -0.0000    2.7860 C   0  0  0  0  0  4           0  0  0
   -2.7814   -0.0000    2.7860 C   0  0  0  0  0  4           0  0  0
   -2.1545   -0.0000    1.3930 C   0  0  0  0  0  4           0  0  0
   -0.6269    0.0000    1.3930 C   0  0  0  0  0  4           0  0  0
    0.0000   -0.0000    0.0000 C   0  0  0  0  0  4           0  0  0
    1.5277    0.0000    0.0000 C   0  0  0  0  0  4           0  0  0
    2.1547    0.0000   -1.3930 C   0  0  0  0  0  4           0  0  0
    3.6822   -0.0000   -1.3930 C   0  0  0  0  0  4           0  0  0
    4.3091    0.0000   -2.7860 C   0  0  0  0  0  4           0  0  0
    3.9313    1.2064   -3.6435 C   0  0  0  0  0  4           0  0  0
    4.5582    1.2064   -5.0365 C   0  0  0  0  0  4           0  0  0
    4.1804    2.4127   -5.8940 C   0  0  0  0  0  4           0  0  0
    4.8073    2.4127   -7.2870 C   0  0  0  0  0  4           0  0  0
    4.4294    3.6191   -8.1445 C   0  0  0  0  0  4           0  0  0
    5.0564    3.6191   -9.5375 C   0  0  0  0  0  4           0  0  0
    4.6388    4.8447  -10.3339 C   0  0  0  0  0  4           0  0  0
  1  9  1  0     0  0
  2 10  1  0     0  0
  3 18  2  0     0  0
  4 19  2  0     0  0
  5 20  2  0     0  0
  6  7  1  0     0  0
  6 11  1  0     0  0
  7 12  2  0     0  0
  8 13  1  0     0  0
  8 18  1  0     0  0
  8 19  1  0     0  0
  9 10  1  0     0  0
  9 15  2  0     0  0
 10 16  2  0     0  0
 11 14  2  0     0  0
 11 18  1  0     0  0
 12 14  1  0     0  0
 12 20  1  0     0  0
 13 15  1  0     0  0
 13 17  2  0     0  0
 14 19  1  0     0  0
 16 17  1  0     0  0
 20 21  1  0     0  0
 21 22  1  0     0  0
 22 23  1  0     0  0
 23 24  1  0     0  0
 24 25  1  0     0  0
 25 26  1  0     0  0
 26 27  1  0     0  0
 27 28  1  0     0  0
 28 29  1  0     0  0
 29 30  1  0     0  0
 30 31  1  0     0  0
 31 32  1  0     0  0
 32 33  1  0     0  0
 33 34  1  0     0  0
 34 35  1  0     0  0
 35 36  1  0     0  0
 36 37  1  0     0  0
M  END
> <standard_type>
IC50

> <# Confs.>
25

> <canonical_smiles>
O=C1C2=C(C(C(CCCCCCCCCCCCCCCCC)=O)=NN2)C(N1C3=CC=C(F)C(Cl)=C3)=O

> <standard_relation>
=

> <predicted_activity_value>
5.5376020021010435

> <actual_activity_value>
5.939302159646388

> <Compound>
10

> <publication_ID>
nan

> <standard_units>
nM

> hash
15431654101533179008

$$$$
10_
XXILIB    08252103493D 0   0.00000     0.00000

 37 39  0     1  0            999 V2000
  -15.4096    1.3700    7.9128 Cl  0  0  0  0  0  1           0  0  0
  -16.3297    0.0169    5.4494 F   0  0  0  0  0  1           0  0  0
  -10.5815    0.0132    8.4338 O   0  0  0  0  0  2           0  0  0
  -10.1005    0.0213    3.7582 O   0  0  0  0  0  2           0  0  0
   -7.0213   -0.0000    3.0305 O   0  0  0  0  0  2           0  0  0
   -7.5360    0.0140    7.4813 N   0  0  0  0  0  3           0  0  0
   -6.5550    0.0080    6.5467 N   0  0  0  0  0  3           0  0  0
  -10.7928    0.0161    6.0509 N   0  0  1  0  0  3           0  0  0
  -14.4197    0.6200    6.7194 C   0  0  0  0  0  4           0  0  0
  -14.9976    0.0196    5.6064 C   0  0  0  0  0  4           0  0  0
   -8.7607    0.0147    6.9240 C   0  0  0  0  0  4           0  0  0
   -7.2076    0.0081    5.3619 C   0  0  0  0  0  4           0  0  0
  -12.2071    0.0148    5.9043 C   0  0  0  0  0  4           0  0  0
   -8.5922    0.0141    5.5747 C   0  0  0  0  0  4           0  0  0
  -13.0306    0.6172    6.8728 C   0  0  0  0  0  4           0  0  0
  -14.2029   -0.5854    4.6405 C   0  0  0  0  0  4           0  0  0
  -12.8135   -0.5872    4.7875 C   0  0  0  0  0  4           0  0  0
  -10.1343    0.0150    7.2983 C   0  0  0  0  0  4           0  0  0
   -9.8921    0.0174    4.9601 C   0  0  0  0  0  4           0  0  0
   -6.4484   -0.0000    4.1199 C   0  0  0  0  0  4           0  0  0
   -4.9359   -0.0000    4.1791 C   0  0  0  0  0  4           0  0  0
   -4.3090   -0.0000    2.7860 C   0  0  0  0  0  4           0  0  0
   -2.7814   -0.0000    2.7860 C   0  0  0  0  0  4           0  0  0
   -2.1545   -0.0000    1.3930 C   0  0  0  0  0  4           0  0  0
   -0.6269    0.0000    1.3930 C   0  0  0  0  0  4           0  0  0
    0.0000   -0.0000    0.0000 C   0  0  0  0  0  4           0  0  0
    1.5277   -0.0000   -0.0000 C   0  0  0  0  0  4           0  0  0
    2.1547    0.0000   -1.3930 C   0  0  0  0  0  4           0  0  0
    3.6822   -0.0000   -1.3930 C   0  0  0  0  0  4           0  0  0
    4.3091   -0.0000   -2.7860 C   0  0  0  0  0  4           0  0  0
    5.8367   -0.0000   -2.7860 C   0  0  0  0  0  4           0  0  0
    6.4636   -1.2064   -2.0895 C   0  0  0  0  0  4           0  0  0
    7.9912   -1.2064   -2.0895 C   0  0  0  0  0  4           0  0  0
    8.6181   -2.4127   -1.3930 C   0  0  0  0  0  4           0  0  0
   10.1456   -2.4127   -1.3930 C   0  0  0  0  0  4           0  0  0
   10.7726   -3.6191   -0.6965 C   0  0  0  0  0  4           0  0  0
   12.2908   -3.5542   -0.7340 C   0  0  0  0  0  4           0  0  0
  1  9  1  0     0  0
  2 10  1  0     0  0
  3 18  2  0     0  0
  4 19  2  0     0  0
  5 20  2  0     0  0
  6  7  1  0     0  0
  6 11  1  0     0  0
  7 12  2  0     0  0
  8 13  1  0     0  0
  8 18  1  0     0  0
  8 19  1  0     0  0
  9 10  1  0     0  0
  9 15  2  0     0  0
 10 16  2  0     0  0
 11 14  2  0     0  0
 11 18  1  0     0  0
 12 14  1  0     0  0
 12 20  1  0     0  0
 13 15  1  0     0  0
 13 17  2  0     0  0
 14 19  1  0     0  0
 16 17  1  0     0  0
 20 21  1  0     0  0
 21 22  1  0     0  0
 22 23  1  0     0  0
 23 24  1  0     0  0
 24 25  1  0     0  0
 25 26  1  0     0  0
 26 27  1  0     0  0
 27 28  1  0     0  0
 28 29  1  0     0  0
 29 30  1  0     0  0
 30 31  1  0     0  0
 31 32  1  0     0  0
 32 33  1  0     0  0
 33 34  1  0     0  0
 34 35  1  0     0  0
 35 36  1  0     0  0
 36 37  1  0     0  0
M  END
> <standard_type>
IC50

> <# Confs.>
25

> <canonical_smiles>
O=C1C2=C(C(C(CCCCCCCCCCCCCCCCC)=O)=NN2)C(N1C3=CC=C(F)C(Cl)=C3)=O

> <standard_relation>
=

> <predicted_activity_value>
5.5376020021010435

> <actual_activity_value>
5.939302159646388

> <Compound>
10

> <publication_ID>
nan

> <standard_units>
nM

> hash
15431654101533179008

$$$$
10_
XXILIB    08252103493D 0   0.00000     0.00000

 37 39  0     1  0            999 V2000
  -15.4096    1.3700    7.9128 Cl  0  0  0  0  0  1           0  0  0
  -16.3297    0.0169    5.4494 F   0  0  0  0  0  1           0  0  0
  -10.5815    0.0132    8.4338 O   0  0  0  0  0  2           0  0  0
  -10.1005    0.0213    3.7582 O   0  0  0  0  0  2           0  0  0
   -7.0213   -0.0000    3.0305 O   0  0  0  0  0  2           0  0  0
   -7.5360    0.0140    7.4813 N   0  0  0  0  0  3           0  0  0
   -6.5550    0.0080    6.5467 N   0  0  0  0  0  3           0  0  0
  -10.7928    0.0161    6.0509 N   0  0  1  0  0  3           0  0  0
  -14.4197    0.6200    6.7194 C   0  0  0  0  0  4           0  0  0
  -14.9976    0.0196    5.6064 C   0  0  0  0  0  4           0  0  0
   -8.7607    0.0147    6.9240 C   0  0  0  0  0  4           0  0  0
   -7.2076    0.0081    5.3619 C   0  0  0  0  0  4           0  0  0
  -12.2071    0.0148    5.9043 C   0  0  0  0  0  4           0  0  0
   -8.5922    0.0141    5.5747 C   0  0  0  0  0  4           0  0  0
  -13.0306    0.6172    6.8728 C   0  0  0  0  0  4           0  0  0
  -14.2029   -0.5854    4.6405 C   0  0  0  0  0  4           0  0  0
  -12.8135   -0.5872    4.7875 C   0  0  0  0  0  4           0  0  0
  -10.1343    0.0150    7.2983 C   0  0  0  0  0  4           0  0  0
   -9.8921    0.0174    4.9601 C   0  0  0  0  0  4           0  0  0
   -6.4484   -0.0000    4.1199 C   0  0  0  0  0  4           0  0  0
   -4.9359   -0.0000    4.1791 C   0  0  0  0  0  4           0  0  0
   -4.3090   -0.0000    2.7860 C   0  0  0  0  0  4           0  0  0
   -2.7814   -0.0000    2.7860 C   0  0  0  0  0  4           0  0  0
   -2.1545   -0.0000    1.3930 C   0  0  0  0  0  4           0  0  0
   -0.6269    0.0000    1.3930 C   0  0  0  0  0  4           0  0  0
    0.0000   -0.0000    0.0000 C   0  0  0  0  0  4           0  0  0
    1.5277    0.0000   -0.0000 C   0  0  0  0  0  4           0  0  0
    2.1547    0.0000   -1.3930 C   0  0  0  0  0  4           0  0  0
    3.6822    0.0000   -1.3930 C   0  0  0  0  0  4           0  0  0
    4.3091    0.0000   -2.7860 C   0  0  0  0  0  4           0  0  0
    5.8367    0.0000   -2.7860 C   0  0  0  0  0  4           0  0  0
    6.4636    0.0000   -4.1790 C   0  0  0  0  0  4           0  0  0
    6.0858    1.2064   -5.0365 C   0  0  0  0  0  4           0  0  0
    6.7127    1.2064   -6.4295 C   0  0  0  0  0  4           0  0  0
    6.3348    2.4127   -7.2870 C   0  0  0  0  0  4           0  0  0
    6.9618    2.4127   -8.6800 C   0  0  0  0  0  4           0  0  0
    6.5442    3.6384   -9.4763 C   0  0  0  0  0  4           0  0  0
  1  9  1  0     0  0
  2 10  1  0     0  0
  3 18  2  0     0  0
  4 19  2  0     0  0
  5 20  2  0     0  0
  6  7  1  0     0  0
  6 11  1  0     0  0
  7 12  2  0     0  0
  8 13  1  0     0  0
  8 18  1  0     0  0
  8 19  1  0     0  0
  9 10  1  0     0  0
  9 15  2  0     0  0
 10 16  2  0     0  0
 11 14  2  0     0  0
 11 18  1  0     0  0
 12 14  1  0     0  0
 12 20  1  0     0  0
 13 15  1  0     0  0
 13 17  2  0     0  0
 14 19  1  0     0  0
 16 17  1  0     0  0
 20 21  1  0     0  0
 21 22  1  0     0  0
 22 23  1  0     0  0
 23 24  1  0     0  0
 24 25  1  0     0  0
 25 26  1  0     0  0
 26 27  1  0     0  0
 27 28  1  0     0  0
 28 29  1  0     0  0
 29 30  1  0     0  0
 30 31  1  0     0  0
 31 32  1  0     0  0
 32 33  1  0     0  0
 33 34  1  0     0  0
 34 35  1  0     0  0
 35 36  1  0     0  0
 36 37  1  0     0  0
M  END
> <standard_type>
IC50

> <# Confs.>
25

> <canonical_smiles>
O=C1C2=C(C(C(CCCCCCCCCCCCCCCCC)=O)=NN2)C(N1C3=CC=C(F)C(Cl)=C3)=O

> <standard_relation>
=

> <predicted_activity_value>
5.5376020021010435

> <actual_activity_value>
5.939302159646388

> <Compound>
10

> <publication_ID>
nan

> <standard_units>
nM

> hash
15431654101533179008

$$$$
15_
XXILIB    08252103493D 0   0.00000     0.00000

 24 24  0     1  0            999 V2000
    3.7327   -0.0084   -5.5136 O   0  0  0  0  0  2           0  0  0
    6.2893   -0.0000   -2.0134 O   0  0  0  0  0  2           0  0  0
    5.7242    0.0150   -6.6512 O   0  0  0  0  0  2           0  0  0
    4.1101    0.0000   -2.7611 O   0  0  0  0  0  2           0  0  0
    8.2453    0.0224   -4.1202 O   0  0  0  0  0  2           0  0  0
    7.1437   -2.4291   -6.4126 O   0  0  0  0  0  2           0  0  0
    4.9519   -0.0014   -5.5229 C   0  0  0  0  0  4           0  0  0
    5.4576    0.0000   -2.9108 C   0  0  0  0  0  4           0  0  0
    7.0719    0.0015   -4.8181 C   0  0  0  0  0  4           0  0  0
    7.1148   -0.0007   -6.2963 C   0  0  1  0  0  4           0  0  0
    3.6405    0.0000   -1.4064 C   0  0  0  0  0  4           0  0  0
    7.7599   -1.2415   -6.8995 C   0  0  0  0  0  4           0  0  0
    5.8275   -0.0013   -4.3375 C   0  0  0  0  0  4           0  0  0
    2.1190    0.0000   -1.4064 C   0  0  0  0  0  4           0  0  0
    1.5262    0.0000    0.0000 C   0  0  0  0  0  4           0  0  0
    0.0000    0.0000    0.0000 C   0  0  0  0  0  4           0  0  0
   -0.5927   -0.0000    1.4064 C   0  0  0  0  0  4           0  0  0
   -2.1190   -0.0000    1.4064 C   0  0  0  0  0  4           0  0  0
   -2.7117    0.0000    2.8129 C   0  0  0  0  0  4           0  0  0
   -4.2380   -0.0000    2.8129 C   0  0  0  0  0  4           0  0  0
   -4.8307    0.0000    4.2193 C   0  0  0  0  0  4           0  0  0
   -6.3569   -0.0000    4.2193 C   0  0  0  0  0  4           0  0  0
   -6.9497    0.0000    5.6258 C   0  0  0  0  0  4           0  0  0
   -8.4712   -0.0000    5.6245 C   0  0  0  0  0  4           0  0  0
  1  7  2  0     0  0
  2  8  2  0     0  0
  3  7  1  0     0  0
  3 10  1  0     0  0
  4  8  1  0     0  0
  4 11  1  0     0  0
  5  9  1  0     0  0
  6 12  1  0     0  0
  7 13  1  0     0  0
  8 13  1  0     0  0
  9 10  1  0     0  0
  9 13  2  0     0  0
 10 12  1  0     0  0
 11 14  1  0     0  0
 14 15  1  0     0  0
 15 16  1  0     0  0
 16 17  1  0     0  0
 17 18  1  0     0  0
 18 19  1  0     0  0
 19 20  1  0     0  0
 20 21  1  0     0  0
 21 22  1  0     0  0
 22 23  1  0     0  0
 23 24  1  0     0  0
M  END
> <standard_type>
IC50

> <# Confs.>
25

> <canonical_smiles>
O=C1C(C(OCCCCCCCCCCCC)=O)=C(O)[C@@H](CO)O1

> <standard_relation>
=

> <predicted_activity_value>
4.853871964321762

> <actual_activity_value>
4.939302159646388

> <Compound>
15

> <publication_ID>
nan

> <standard_units>
nM

> hash
4094064075501186078

$$$$
15_
XXILIB    08252103493D 0   0.00000     0.00000

 24 24  0     1  0            999 V2000
    3.7327    3.5611    0.6399 O   0  0  0  0  0  2           0  0  0
    6.2893    0.5257   -1.1030 O   0  0  0  0  0  2           0  0  0
    5.7242    4.5346    1.2289 O   0  0  0  0  0  2           0  0  0
    4.1101    1.1732   -0.7291 O   0  0  0  0  0  2           0  0  0
    8.2453    2.3390   -0.0302 O   0  0  0  0  0  2           0  0  0
    7.1437    5.5500   -1.0070 O   0  0  0  0  0  2           0  0  0
    4.9519    3.5657    0.6505 C   0  0  0  0  0  4           0  0  0
    5.4576    1.3028   -0.6543 C   0  0  0  0  0  4           0  0  0
    7.0719    2.9538    0.3007 C   0  0  0  0  0  4           0  0  0
    7.1148    4.2352    1.0379 C   0  0  1  0  0  4           0  0  0
    3.6405    0.0000   -1.4064 C   0  0  0  0  0  4           0  0  0
    7.7599    5.3779    0.2649 C   0  0  0  0  0  4           0  0  0
    5.8275    2.5390    0.0580 C   0  0  0  0  0  4           0  0  0
    2.1190    0.0000   -1.4064 C   0  0  0  0  0  4           0  0  0
    1.5262   -0.0000    0.0000 C   0  0  0  0  0  4           0  0  0
    0.0000    0.0000    0.0000 C   0  0  0  0  0  4           0  0  0
   -0.5927   -0.0000    1.4064 C   0  0  0  0  0  4           0  0  0
   -2.1190   -0.0000    1.4064 C   0  0  0  0  0  4           0  0  0
   -2.7117    0.0000    2.8129 C   0  0  0  0  0  4           0  0  0
   -4.2380   -0.0000    2.8129 C   0  0  0  0  0  4           0  0  0
   -4.8307    0.0000    4.2193 C   0  0  0  0  0  4           0  0  0
   -6.3569   -0.0000    4.2193 C   0  0  0  0  0  4           0  0  0
   -6.9497    0.0000    5.6258 C   0  0  0  0  0  4           0  0  0
   -8.4712   -0.0000    5.6245 C   0  0  0  0  0  4           0  0  0
  1  7  2  0     0  0
  2  8  2  0     0  0
  3  7  1  0     0  0
  3 10  1  0     0  0
  4  8  1  0     0  0
  4 11  1  0     0  0
  5  9  1  0     0  0
  6 12  1  0     0  0
  7 13  1  0     0  0
  8 13  1  0     0  0
  9 10  1  0     0  0
  9 13  2  0     0  0
 10 12  1  0     0  0
 11 14  1  0     0  0
 14 15  1  0     0  0
 15 16  1  0     0  0
 16 17  1  0     0  0
 17 18  1  0     0  0
 18 19  1  0     0  0
 19 20  1  0     0  0
 20 21  1  0     0  0
 21 22  1  0     0  0
 22 23  1  0     0  0
 23 24  1  0     0  0
M  END
> <standard_type>
IC50

> <# Confs.>
25

> <canonical_smiles>
O=C1C(C(OCCCCCCCCCCCC)=O)=C(O)[C@@H](CO)O1

> <standard_relation>
=

> <predicted_activity_value>
4.853871964321762

> <actual_activity_value>
4.939302159646388

> <Compound>
15

> <publication_ID>
nan

> <standard_units>
nM

> hash
4094064075501186078

$$$$
15_
XXILIB    08252103493D 0   0.00000     0.00000

 24 24  0     1  0            999 V2000
    3.7327   -3.5527    0.6544 O   0  0  0  0  0  2           0  0  0
    6.2893   -0.5257   -1.1030 O   0  0  0  0  0  2           0  0  0
    5.7242   -4.5496    1.2030 O   0  0  0  0  0  2           0  0  0
    4.1101   -1.1732   -0.7291 O   0  0  0  0  0  2           0  0  0
    8.2453   -2.3613   -0.0689 O   0  0  0  0  0  2           0  0  0
    7.1437   -3.1209    3.2003 O   0  0  0  0  0  2           0  0  0
    4.9519   -3.5642    0.6530 C   0  0  0  0  0  4           0  0  0
    5.4576   -1.3028   -0.6543 C   0  0  0  0  0  4           0  0  0
    7.0719   -2.9553    0.2981 C   0  0  0  0  0  4           0  0  0
    7.1148   -4.2344    1.0392 C   0  0  1  0  0  4           0  0  0
    3.6405   -0.0000   -1.4064 C   0  0  0  0  0  4           0  0  0
    7.7599   -4.1364    2.4152 C   0  0  0  0  0  4           0  0  0
    5.8275   -2.5377    0.0602 C   0  0  0  0  0  4           0  0  0
    2.1190    0.0000   -1.4064 C   0  0  0  0  0  4           0  0  0
    1.5262    0.0000   -0.0000 C   0  0  0  0  0  4           0  0  0
    0.0000    0.0000    0.0000 C   0  0  0  0  0  4           0  0  0
   -0.5927   -0.0000    1.4064 C   0  0  0  0  0  4           0  0  0
   -2.1190   -0.0000    1.4064 C   0  0  0  0  0  4           0  0  0
   -2.7117    0.0000    2.8129 C   0  0  0  0  0  4           0  0  0
   -4.2380   -0.0000    2.8129 C   0  0  0  0  0  4           0  0  0
   -4.8307    0.0000    4.2193 C   0  0  0  0  0  4           0  0  0
   -6.3569   -0.0000    4.2193 C   0  0  0  0  0  4           0  0  0
   -6.9497    0.0000    5.6258 C   0  0  0  0  0  4           0  0  0
   -8.4712   -0.0000    5.6245 C   0  0  0  0  0  4           0  0  0
  1  7  2  0     0  0
  2  8  2  0     0  0
  3  7  1  0     0  0
  3 10  1  0     0  0
  4  8  1  0     0  0
  4 11  1  0     0  0
  5  9  1  0     0  0
  6 12  1  0     0  0
  7 13  1  0     0  0
  8 13  1  0     0  0
  9 10  1  0     0  0
  9 13  2  0     0  0
 10 12  1  0     0  0
 11 14  1  0     0  0
 14 15  1  0     0  0
 15 16  1  0     0  0
 16 17  1  0     0  0
 17 18  1  0     0  0
 18 19  1  0     0  0
 19 20  1  0     0  0
 20 21  1  0     0  0
 21 22  1  0     0  0
 22 23  1  0     0  0
 23 24  1  0     0  0
M  END
> <standard_type>
IC50

> <# Confs.>
25

> <canonical_smiles>
O=C1C(C(OCCCCCCCCCCCC)=O)=C(O)[C@@H](CO)O1

> <standard_relation>
=

> <predicted_activity_value>
4.853871964321762

> <actual_activity_value>
4.939302159646388

> <Compound>
15

> <publication_ID>
nan

> <standard_units>
nM

> hash
4094064075501186078

$$$$
15_
XXILIB    08252103493D 0   0.00000     0.00000

 24 24  0     1  0            999 V2000
    4.9293   -1.2580   -5.0988 O   0  0  0  0  0  2           0  0  0
    4.1125    2.3039   -2.7680 O   0  0  0  0  0  2           0  0  0
    5.4728    0.2510   -6.7384 O   0  0  0  0  0  2           0  0  0
    4.1101    0.0000   -2.7611 O   0  0  0  0  0  2           0  0  0
    4.9530    3.4621   -5.2613 O   0  0  0  0  0  2           0  0  0
    7.8605    1.6704   -6.1641 O   0  0  0  0  0  2           0  0  0
    5.0563   -0.1091   -5.4867 C   0  0  0  0  0  4           0  0  0
    4.3009    1.2241   -3.3117 C   0  0  0  0  0  4           0  0  0
    5.0628    2.1248   -5.5145 C   0  0  0  0  0  4           0  0  0
    5.5270    1.6812   -6.8467 C   0  0  1  0  0  4           0  0  0
    3.6405    0.0000   -1.4064 C   0  0  0  0  0  4           0  0  0
    6.9552    2.0932   -7.1784 C   0  0  0  0  0  4           0  0  0
    4.7833    1.1064   -4.6994 C   0  0  0  0  0  4           0  0  0
    2.1190    0.0000   -1.4064 C   0  0  0  0  0  4           0  0  0
    1.5262    0.0000   -0.0000 C   0  0  0  0  0  4           0  0  0
    0.0000    0.0000    0.0000 C   0  0  0  0  0  4           0  0  0
   -0.5927   -0.0000    1.4064 C   0  0  0  0  0  4           0  0  0
   -2.1190   -0.0000    1.4064 C   0  0  0  0  0  4           0  0  0
   -2.7117    0.0000    2.8129 C   0  0  0  0  0  4           0  0  0
   -4.2380   -0.0000    2.8129 C   0  0  0  0  0  4           0  0  0
   -4.8307    0.0000    4.2193 C   0  0  0  0  0  4           0  0  0
   -6.3569   -0.0000    4.2193 C   0  0  0  0  0  4           0  0  0
   -6.9497    0.0000    5.6258 C   0  0  0  0  0  4           0  0  0
   -8.4712   -0.0000    5.6245 C   0  0  0  0  0  4           0  0  0
  1  7  2  0     0  0
  2  8  2  0     0  0
  3  7  1  0     0  0
  3 10  1  0     0  0
  4  8  1  0     0  0
  4 11  1  0     0  0
  5  9  1  0     0  0
  6 12  1  0     0  0
  7 13  1  0     0  0
  8 13  1  0     0  0
  9 10  1  0     0  0
  9 13  2  0     0  0
 10 12  1  0     0  0
 11 14  1  0     0  0
 14 15  1  0     0  0
 15 16  1  0     0  0
 16 17  1  0     0  0
 17 18  1  0     0  0
 18 19  1  0     0  0
 19 20  1  0     0  0
 20 21  1  0     0  0
 21 22  1  0     0  0
 22 23  1  0     0  0
 23 24  1  0     0  0
M  END
> <standard_type>
IC50

> <# Confs.>
25

> <canonical_smiles>
O=C1C(C(OCCCCCCCCCCCC)=O)=C(O)[C@@H](CO)O1

> <standard_relation>
=

> <predicted_activity_value>
4.853871964321762

> <actual_activity_value>
4.939302159646388

> <Compound>
15

> <publication_ID>
nan

> <standard_units>
nM

> hash
4094064075501186078

$$$$
15_
XXILIB    08252103493D 0   0.00000     0.00000

 24 24  0     1  0            999 V2000
    4.9293   -2.5687    1.5292 O   0  0  0  0  0  2           0  0  0
    4.1125   -2.3311   -2.7209 O   0  0  0  0  0  2           0  0  0
    5.4728   -4.7431    1.0421 O   0  0  0  0  0  2           0  0  0
    4.1101   -1.1732   -0.7291 O   0  0  0  0  0  2           0  0  0
    4.9530   -5.0695   -2.4772 O   0  0  0  0  0  2           0  0  0
    7.8605   -4.9555   -0.4742 O   0  0  0  0  0  2           0  0  0
    5.0563   -3.4790    0.7282 C   0  0  0  0  0  4           0  0  0
    4.3009   -2.2621   -1.5139 C   0  0  0  0  0  4           0  0  0
    5.0628   -4.6201   -1.1926 C   0  0  0  0  0  4           0  0  0
    5.5270   -5.5520   -0.1423 C   0  0  1  0  0  4           0  0  0
    3.6405   -0.0000   -1.4064 C   0  0  0  0  0  4           0  0  0
    6.9552   -6.0453   -0.3332 C   0  0  0  0  0  4           0  0  0
    4.7833   -3.4050   -0.7182 C   0  0  0  0  0  4           0  0  0
    2.1190    0.0000   -1.4064 C   0  0  0  0  0  4           0  0  0
    1.5262   -0.0000    0.0000 C   0  0  0  0  0  4           0  0  0
    0.0000    0.0000    0.0000 C   0  0  0  0  0  4           0  0  0
   -0.5927   -0.0000    1.4064 C   0  0  0  0  0  4           0  0  0
   -2.1190   -0.0000    1.4064 C   0  0  0  0  0  4           0  0  0
   -2.7117    0.0000    2.8129 C   0  0  0  0  0  4           0  0  0
   -4.2380   -0.0000    2.8129 C   0  0  0  0  0  4           0  0  0
   -4.8307    0.0000    4.2193 C   0  0  0  0  0  4           0  0  0
   -6.3569   -0.0000    4.2193 C   0  0  0  0  0  4           0  0  0
   -6.9497    0.0000    5.6258 C   0  0  0  0  0  4           0  0  0
   -8.4712   -0.0000    5.6245 C   0  0  0  0  0  4           0  0  0
  1  7  2  0     0  0
  2  8  2  0     0  0
  3  7  1  0     0  0
  3 10  1  0     0  0
  4  8  1  0     0  0
  4 11  1  0     0  0
  5  9  1  0     0  0
  6 12  1  0     0  0
  7 13  1  0     0  0
  8 13  1  0     0  0
  9 10  1  0     0  0
  9 13  2  0     0  0
 10 12  1  0     0  0
 11 14  1  0     0  0
 14 15  1  0     0  0
 15 16  1  0     0  0
 16 17  1  0     0  0
 17 18  1  0     0  0
 18 19  1  0     0  0
 19 20  1  0     0  0
 20 21  1  0     0  0
 21 22  1  0     0  0
 22 23  1  0     0  0
 23 24  1  0     0  0
M  END
> <standard_type>
IC50

> <# Confs.>
25

> <canonical_smiles>
O=C1C(C(OCCCCCCCCCCCC)=O)=C(O)[C@@H](CO)O1

> <standard_relation>
=

> <predicted_activity_value>
4.853871964321762

> <actual_activity_value>
4.939302159646388

> <Compound>
15

> <publication_ID>
nan

> <standard_units>
nM

> hash
4094064075501186078

$$$$
15_
XXILIB    08252103493D 0   0.00000     0.00000

 24 24  0     1  0            999 V2000
    4.9134    1.2580   -5.1043 O   0  0  0  0  0  2           0  0  0
    4.1125   -2.3039   -2.7680 O   0  0  0  0  0  2           0  0  0
    5.5011   -0.2510   -6.7285 O   0  0  0  0  0  2           0  0  0
    4.1101    0.0000   -2.7611 O   0  0  0  0  0  2           0  0  0
    4.9953   -3.4621   -5.2467 O   0  0  0  0  0  2           0  0  0
    3.2702   -1.6704   -7.7552 O   0  0  0  0  0  2           0  0  0
    5.0536    0.1091   -5.4876 C   0  0  0  0  0  4           0  0  0
    4.3009   -1.2241   -3.3117 C   0  0  0  0  0  4           0  0  0
    5.0657   -2.1248   -5.5135 C   0  0  0  0  0  4           0  0  0
    5.5256   -1.6812   -6.8472 C   0  0  1  0  0  4           0  0  0
    3.6405    0.0000   -1.4064 C   0  0  0  0  0  4           0  0  0
    4.6091   -2.0932   -7.9916 C   0  0  0  0  0  4           0  0  0
    4.7809   -1.1064   -4.7002 C   0  0  0  0  0  4           0  0  0
    2.1190    0.0000   -1.4064 C   0  0  0  0  0  4           0  0  0
    1.5262    0.0000    0.0000 C   0  0  0  0  0  4           0  0  0
    0.0000    0.0000    0.0000 C   0  0  0  0  0  4           0  0  0
   -0.5927   -0.0000    1.4064 C   0  0  0  0  0  4           0  0  0
   -2.1190   -0.0000    1.4064 C   0  0  0  0  0  4           0  0  0
   -2.7117    0.0000    2.8129 C   0  0  0  0  0  4           0  0  0
   -4.2380   -0.0000    2.8129 C   0  0  0  0  0  4           0  0  0
   -4.8307    0.0000    4.2193 C   0  0  0  0  0  4           0  0  0
   -6.3569   -0.0000    4.2193 C   0  0  0  0  0  4           0  0  0
   -6.9497    0.0000    5.6258 C   0  0  0  0  0  4           0  0  0
   -8.4712   -0.0000    5.6245 C   0  0  0  0  0  4           0  0  0
  1  7  2  0     0  0
  2  8  2  0     0  0
  3  7  1  0     0  0
  3 10  1  0     0  0
  4  8  1  0     0  0
  4 11  1  0     0  0
  5  9  1  0     0  0
  6 12  1  0     0  0
  7 13  1  0     0  0
  8 13  1  0     0  0
  9 10  1  0     0  0
  9 13  2  0     0  0
 10 12  1  0     0  0
 11 14  1  0     0  0
 14 15  1  0     0  0
 15 16  1  0     0  0
 16 17  1  0     0  0
 17 18  1  0     0  0
 18 19  1  0     0  0
 19 20  1  0     0  0
 20 21  1  0     0  0
 21 22  1  0     0  0
 22 23  1  0     0  0
 23 24  1  0     0  0
M  END
> <standard_type>
IC50

> <# Confs.>
25

> <canonical_smiles>
O=C1C(C(OCCCCCCCCCCCC)=O)=C(O)[C@@H](CO)O1

> <standard_relation>
=

> <predicted_activity_value>
4.853871964321762

> <actual_activity_value>
4.939302159646388

> <Compound>
15

> <publication_ID>
nan

> <standard_units>
nM

> hash
4094064075501186078

$$$$
15_
XXILIB    08252103493D 0   0.00000     0.00000

 24 24  0     1  0            999 V2000
    4.9134    2.5735    1.5320 O   0  0  0  0  0  2           0  0  0
    4.1125    2.3311   -2.7209 O   0  0  0  0  0  2           0  0  0
    5.5011    4.7346    1.0372 O   0  0  0  0  0  2           0  0  0
    4.1101    1.1732   -0.7291 O   0  0  0  0  0  2           0  0  0
    4.9953    5.0568   -2.4846 O   0  0  0  0  0  2           0  0  0
    3.2702    6.3334    0.3213 O   0  0  0  0  0  2           0  0  0
    5.0536    3.4798    0.7287 C   0  0  0  0  0  4           0  0  0
    4.3009    2.2621   -1.5139 C   0  0  0  0  0  4           0  0  0
    5.0657    4.6192   -1.1931 C   0  0  0  0  0  4           0  0  0
    5.5256    5.5524   -0.1420 C   0  0  1  0  0  4           0  0  0
    3.6405    0.0000   -1.4064 C   0  0  0  0  0  4           0  0  0
    4.6091    6.7495    0.0734 C   0  0  0  0  0  4           0  0  0
    4.7809    3.4057   -0.7177 C   0  0  0  0  0  4           0  0  0
    2.1190    0.0000   -1.4064 C   0  0  0  0  0  4           0  0  0
    1.5262    0.0000    0.0000 C   0  0  0  0  0  4           0  0  0
    0.0000    0.0000    0.0000 C   0  0  0  0  0  4           0  0  0
   -0.5927   -0.0000    1.4064 C   0  0  0  0  0  4           0  0  0
   -2.1190   -0.0000    1.4064 C   0  0  0  0  0  4           0  0  0
   -2.7117    0.0000    2.8129 C   0  0  0  0  0  4           0  0  0
   -4.2380   -0.0000    2.8129 C   0  0  0  0  0  4           0  0  0
   -4.8307    0.0000    4.2193 C   0  0  0  0  0  4           0  0  0
   -6.3569   -0.0000    4.2193 C   0  0  0  0  0  4           0  0  0
   -6.9497    0.0000    5.6258 C   0  0  0  0  0  4           0  0  0
   -8.4712   -0.0000    5.6245 C   0  0  0  0  0  4           0  0  0
  1  7  2  0     0  0
  2  8  2  0     0  0
  3  7  1  0     0  0
  3 10  1  0     0  0
  4  8  1  0     0  0
  4 11  1  0     0  0
  5  9  1  0     0  0
  6 12  1  0     0  0
  7 13  1  0     0  0
  8 13  1  0     0  0
  9 10  1  0     0  0
  9 13  2  0     0  0
 10 12  1  0     0  0
 11 14  1  0     0  0
 14 15  1  0     0  0
 15 16  1  0     0  0
 16 17  1  0     0  0
 17 18  1  0     0  0
 18 19  1  0     0  0
 19 20  1  0     0  0
 20 21  1  0     0  0
 21 22  1  0     0  0
 22 23  1  0     0  0
 23 24  1  0     0  0
M  END
> <standard_type>
IC50

> <# Confs.>
25

> <canonical_smiles>
O=C1C(C(OCCCCCCCCCCCC)=O)=C(O)[C@@H](CO)O1

> <standard_relation>
=

> <predicted_activity_value>
4.853871964321762

> <actual_activity_value>
4.939302159646388

> <Compound>
15

> <publication_ID>
nan

> <standard_units>
nM

> hash
4094064075501186078

$$$$
15_
XXILIB    08252103493D 0   0.00000     0.00000

 24 24  0     1  0            999 V2000
    3.8959   -3.1898    1.1699 O   0  0  0  0  0  2           0  0  0
    5.9977   -1.1892   -2.0500 O   0  0  0  0  0  2           0  0  0
    5.6853   -4.6230    1.1027 O   0  0  0  0  0  2           0  0  0
    4.1101   -1.1732   -0.7291 O   0  0  0  0  0  2           0  0  0
    7.7965   -3.3601   -1.4877 O   0  0  0  0  0  2           0  0  0
    8.0798   -3.4202    2.0329 O   0  0  0  0  0  2           0  0  0
    4.9664   -3.5327    0.6976 C   0  0  0  0  0  4           0  0  0
    5.3026   -1.6554   -1.1575 C   0  0  0  0  0  4           0  0  0
    6.8022   -3.5674   -0.5751 C   0  0  0  0  0  4           0  0  0
    6.9023   -4.7185    0.3479 C   0  0  1  0  0  4           0  0  0
    3.6405   -0.0000   -1.4064 C   0  0  0  0  0  4           0  0  0
    8.0814   -4.6463    1.3091 C   0  0  0  0  0  4           0  0  0
    5.6880   -2.8563   -0.3949 C   0  0  0  0  0  4           0  0  0
    2.1190    0.0000   -1.4064 C   0  0  0  0  0  4           0  0  0
    1.5262   -0.0000    0.0000 C   0  0  0  0  0  4           0  0  0
    0.0000    0.0000    0.0000 C   0  0  0  0  0  4           0  0  0
   -0.5927   -0.0000    1.4064 C   0  0  0  0  0  4           0  0  0
   -2.1190   -0.0000    1.4064 C   0  0  0  0  0  4           0  0  0
   -2.7117    0.0000    2.8129 C   0  0  0  0  0  4           0  0  0
   -4.2380   -0.0000    2.8129 C   0  0  0  0  0  4           0  0  0
   -4.8307    0.0000    4.2193 C   0  0  0  0  0  4           0  0  0
   -6.3569   -0.0000    4.2193 C   0  0  0  0  0  4           0  0  0
   -6.9497    0.0000    5.6258 C   0  0  0  0  0  4           0  0  0
   -8.4712   -0.0000    5.6245 C   0  0  0  0  0  4           0  0  0
  1  7  2  0     0  0
  2  8  2  0     0  0
  3  7  1  0     0  0
  3 10  1  0     0  0
  4  8  1  0     0  0
  4 11  1  0     0  0
  5  9  1  0     0  0
  6 12  1  0     0  0
  7 13  1  0     0  0
  8 13  1  0     0  0
  9 10  1  0     0  0
  9 13  2  0     0  0
 10 12  1  0     0  0
 11 14  1  0     0  0
 14 15  1  0     0  0
 15 16  1  0     0  0
 16 17  1  0     0  0
 17 18  1  0     0  0
 18 19  1  0     0  0
 19 20  1  0     0  0
 20 21  1  0     0  0
 21 22  1  0     0  0
 22 23  1  0     0  0
 23 24  1  0     0  0
M  END
> <standard_type>
IC50

> <# Confs.>
25

> <canonical_smiles>
O=C1C(C(OCCCCCCCCCCCC)=O)=C(O)[C@@H](CO)O1

> <standard_relation>
=

> <predicted_activity_value>
4.853871964321762

> <actual_activity_value>
4.939302159646388

> <Compound>
15

> <publication_ID>
nan

> <standard_units>
nM

> hash
4094064075501186078

$$$$
15_
XXILIB    08252103493D 0   0.00000     0.00000

 24 24  0     1  0            999 V2000
    3.4206   -3.7566    0.5083 O   0  0  0  0  0  2           0  0  0
    1.2339   -3.6930   -3.2335 O   0  0  0  0  0  2           0  0  0
    3.3361   -6.0308    0.2225 O   0  0  0  0  0  2           0  0  0
    2.1465   -2.4034   -1.5566 O   0  0  0  0  0  2           0  0  0
    1.5697   -6.5215   -2.8436 O   0  0  0  0  0  2           0  0  0
    4.9582   -6.9193   -1.9281 O   0  0  0  0  0  2           0  0  0
    3.0848   -4.7355   -0.1363 C   0  0  0  0  0  4           0  0  0
    1.8409   -3.5687   -2.1785 C   0  0  0  0  0  4           0  0  0
    2.2039   -6.0037   -1.7509 C   0  0  0  0  0  4           0  0  0
    2.8190   -6.9266   -0.7726 C   0  0  1  0  0  4           0  0  0
    1.7024   -1.2143   -2.2232 C   0  0  0  0  0  4           0  0  0
    3.9693   -7.7528   -1.3326 C   0  0  0  0  0  4           0  0  0
    2.3438   -4.7216   -1.4102 C   0  0  0  0  0  4           0  0  0
    2.1190    0.0000   -1.4064 C   0  0  0  0  0  4           0  0  0
    1.5262   -0.0000   -0.0000 C   0  0  0  0  0  4           0  0  0
    0.0000    0.0000   -0.0000 C   0  0  0  0  0  4           0  0  0
   -0.5927    0.0000    1.4064 C   0  0  0  0  0  4           0  0  0
   -0.1749   -1.2180    2.2258 C   0  0  0  0  0  4           0  0  0
   -0.6072   -2.5366    1.5902 C   0  0  0  0  0  4           0  0  0
   -0.1893   -3.7546    2.4095 C   0  0  0  0  0  4           0  0  0
   -0.6216   -5.0731    1.7739 C   0  0  0  0  0  4           0  0  0
   -0.2038   -6.2912    2.5932 C   0  0  0  0  0  4           0  0  0
   -0.6360   -7.6097    1.9576 C   0  0  0  0  0  4           0  0  0
   -0.2190   -8.8232    2.7752 C   0  0  0  0  0  4           0  0  0
  1  7  2  0     0  0
  2  8  2  0     0  0
  3  7  1  0     0  0
  3 10  1  0     0  0
  4  8  1  0     0  0
  4 11  1  0     0  0
  5  9  1  0     0  0
  6 12  1  0     0  0
  7 13  1  0     0  0
  8 13  1  0     0  0
  9 10  1  0     0  0
  9 13  2  0     0  0
 10 12  1  0     0  0
 11 14  1  0     0  0
 14 15  1  0     0  0
 15 16  1  0     0  0
 16 17  1  0     0  0
 17 18  1  0     0  0
 18 19  1  0     0  0
 19 20  1  0     0  0
 20 21  1  0     0  0
 21 22  1  0     0  0
 22 23  1  0     0  0
 23 24  1  0     0  0
M  END
> <standard_type>
IC50

> <# Confs.>
25

> <canonical_smiles>
O=C1C(C(OCCCCCCCCCCCC)=O)=C(O)[C@@H](CO)O1

> <standard_relation>
=

> <predicted_activity_value>
4.853871964321762

> <actual_activity_value>
4.939302159646388

> <Compound>
15

> <publication_ID>
nan

> <standard_units>
nM

> hash
4094064075501186078

$$$$
15_
XXILIB    08252103493D 0   0.00000     0.00000

 24 24  0     1  0            999 V2000
    3.4206   -3.7566    0.5083 O   0  0  0  0  0  2           0  0  0
    1.2339   -3.6930   -3.2335 O   0  0  0  0  0  2           0  0  0
    3.3361   -6.0308    0.2225 O   0  0  0  0  0  2           0  0  0
    2.1465   -2.4034   -1.5566 O   0  0  0  0  0  2           0  0  0
    1.5697   -6.5215   -2.8436 O   0  0  0  0  0  2           0  0  0
    4.9582   -6.9193   -1.9281 O   0  0  0  0  0  2           0  0  0
    3.0848   -4.7355   -0.1363 C   0  0  0  0  0  4           0  0  0
    1.8409   -3.5687   -2.1785 C   0  0  0  0  0  4           0  0  0
    2.2039   -6.0037   -1.7509 C   0  0  0  0  0  4           0  0  0
    2.8190   -6.9266   -0.7726 C   0  0  1  0  0  4           0  0  0
    1.7024   -1.2143   -2.2232 C   0  0  0  0  0  4           0  0  0
    3.9693   -7.7528   -1.3326 C   0  0  0  0  0  4           0  0  0
    2.3438   -4.7216   -1.4102 C   0  0  0  0  0  4           0  0  0
    2.1190    0.0000   -1.4064 C   0  0  0  0  0  4           0  0  0
    1.5262   -0.0000   -0.0000 C   0  0  0  0  0  4           0  0  0
    0.0000    0.0000    0.0000 C   0  0  0  0  0  4           0  0  0
   -0.5927   -0.0000    1.4064 C   0  0  0  0  0  4           0  0  0
   -2.1190   -0.0000    1.4064 C   0  0  0  0  0  4           0  0  0
   -2.7117    0.0000    2.8129 C   0  0  0  0  0  4           0  0  0
   -4.2380   -0.0000    2.8129 C   0  0  0  0  0  4           0  0  0
   -4.8307    0.0000    4.2193 C   0  0  0  0  0  4           0  0  0
   -6.3569   -0.0000    4.2193 C   0  0  0  0  0  4           0  0  0
   -6.9497    0.0000    5.6258 C   0  0  0  0  0  4           0  0  0
   -8.4712   -0.0000    5.6245 C   0  0  0  0  0  4           0  0  0
  1  7  2  0     0  0
  2  8  2  0     0  0
  3  7  1  0     0  0
  3 10  1  0     0  0
  4  8  1  0     0  0
  4 11  1  0     0  0
  5  9  1  0     0  0
  6 12  1  0     0  0
  7 13  1  0     0  0
  8 13  1  0     0  0
  9 10  1  0     0  0
  9 13  2  0     0  0
 10 12  1  0     0  0
 11 14  1  0     0  0
 14 15  1  0     0  0
 15 16  1  0     0  0
 16 17  1  0     0  0
 17 18  1  0     0  0
 18 19  1  0     0  0
 19 20  1  0     0  0
 20 21  1  0     0  0
 21 22  1  0     0  0
 22 23  1  0     0  0
 23 24  1  0     0  0
M  END
> <standard_type>
IC50

> <# Confs.>
25

> <canonical_smiles>
O=C1C(C(OCCCCCCCCCCCC)=O)=C(O)[C@@H](CO)O1

> <standard_relation>
=

> <predicted_activity_value>
4.853871964321762

> <actual_activity_value>
4.939302159646388

> <Compound>
15

> <publication_ID>
nan

> <standard_units>
nM

> hash
4094064075501186078

$$$$
15_
XXILIB    08252103493D 0   0.00000     0.00000

 24 24  0     1  0            999 V2000
    3.4061    3.7573    0.5168 O   0  0  0  0  0  2           0  0  0
    1.2339    3.6930   -3.2335 O   0  0  0  0  0  2           0  0  0
    3.3621    6.0295    0.2075 O   0  0  0  0  0  2           0  0  0
    2.1465    2.4034   -1.5566 O   0  0  0  0  0  2           0  0  0
    1.6083    6.5196   -2.8661 O   0  0  0  0  0  2           0  0  0
    0.7610    7.1198    0.5104 O   0  0  0  0  0  2           0  0  0
    3.0823    4.7356   -0.1349 C   0  0  0  0  0  4           0  0  0
    1.8409    3.5687   -2.1785 C   0  0  0  0  0  4           0  0  0
    2.2065    6.0036   -1.7524 C   0  0  0  0  0  4           0  0  0
    2.8177    6.9266   -0.7718 C   0  0  1  0  0  4           0  0  0
    1.7024    1.2143   -2.2232 C   0  0  0  0  0  4           0  0  0
    1.8242    7.8552   -0.0863 C   0  0  0  0  0  4           0  0  0
    2.3416    4.7217   -1.4089 C   0  0  0  0  0  4           0  0  0
    2.1190    0.0000   -1.4064 C   0  0  0  0  0  4           0  0  0
    1.5262   -0.0000    0.0000 C   0  0  0  0  0  4           0  0  0
    0.0000    0.0000    0.0000 C   0  0  0  0  0  4           0  0  0
   -0.5927   -0.0000    1.4064 C   0  0  0  0  0  4           0  0  0
   -2.1190   -0.0000    1.4064 C   0  0  0  0  0  4           0  0  0
   -2.7117    0.0000    2.8129 C   0  0  0  0  0  4           0  0  0
   -4.2380   -0.0000    2.8129 C   0  0  0  0  0  4           0  0  0
   -4.8307    0.0000    4.2193 C   0  0  0  0  0  4           0  0  0
   -6.3569   -0.0000    4.2193 C   0  0  0  0  0  4           0  0  0
   -6.9497    0.0000    5.6258 C   0  0  0  0  0  4           0  0  0
   -8.4712   -0.0000    5.6245 C   0  0  0  0  0  4           0  0  0
  1  7  2  0     0  0
  2  8  2  0     0  0
  3  7  1  0     0  0
  3 10  1  0     0  0
  4  8  1  0     0  0
  4 11  1  0     0  0
  5  9  1  0     0  0
  6 12  1  0     0  0
  7 13  1  0     0  0
  8 13  1  0     0  0
  9 10  1  0     0  0
  9 13  2  0     0  0
 10 12  1  0     0  0
 11 14  1  0     0  0
 14 15  1  0     0  0
 15 16  1  0     0  0
 16 17  1  0     0  0
 17 18  1  0     0  0
 18 19  1  0     0  0
 19 20  1  0     0  0
 20 21  1  0     0  0
 21 22  1  0     0  0
 22 23  1  0     0  0
 23 24  1  0     0  0
M  END
> <standard_type>
IC50

> <# Confs.>
25

> <canonical_smiles>
O=C1C(C(OCCCCCCCCCCCC)=O)=C(O)[C@@H](CO)O1

> <standard_relation>
=

> <predicted_activity_value>
4.853871964321762

> <actual_activity_value>
4.939302159646388

> <Compound>
15

> <publication_ID>
nan

> <standard_units>
nM

> hash
4094064075501186078

$$$$
15_
XXILIB    08252103493D 0   0.00000     0.00000

 24 24  0     1  0            999 V2000
    3.8887   -0.0893   -5.4479 O   0  0  0  0  0  2           0  0  0
    1.3031    3.1240   -4.1148 O   0  0  0  0  0  2           0  0  0
    3.9355    1.1056   -7.4050 O   0  0  0  0  0  2           0  0  0
    2.3011    1.1334   -3.5235 O   0  0  0  0  0  2           0  0  0
    1.8807    3.9652   -6.8024 O   0  0  0  0  0  2           0  0  0
    5.3694    3.5408   -7.1604 O   0  0  0  0  0  2           0  0  0
    3.5544    0.8770   -6.1119 C   0  0  0  0  0  4           0  0  0
    2.0126    2.1584   -4.3627 C   0  0  0  0  0  4           0  0  0
    2.5933    2.8045   -6.7056 C   0  0  0  0  0  4           0  0  0
    3.3769    2.3427   -7.8717 C   0  0  1  0  0  4           0  0  0
    1.7024    1.2143   -2.2232 C   0  0  0  0  0  4           0  0  0
    4.5142    3.2750   -8.2673 C   0  0  0  0  0  4           0  0  0
    2.6782    1.9744   -5.6647 C   0  0  0  0  0  4           0  0  0
    2.1190    0.0000   -1.4064 C   0  0  0  0  0  4           0  0  0
    1.5262    0.0000   -0.0000 C   0  0  0  0  0  4           0  0  0
    0.0000    0.0000    0.0000 C   0  0  0  0  0  4           0  0  0
   -0.5927   -0.0000    1.4064 C   0  0  0  0  0  4           0  0  0
   -2.1190   -0.0000    1.4064 C   0  0  0  0  0  4           0  0  0
   -2.7117    0.0000    2.8129 C   0  0  0  0  0  4           0  0  0
   -4.2380   -0.0000    2.8129 C   0  0  0  0  0  4           0  0  0
   -4.8307    0.0000    4.2193 C   0  0  0  0  0  4           0  0  0
   -6.3569   -0.0000    4.2193 C   0  0  0  0  0  4           0  0  0
   -6.9497    0.0000    5.6258 C   0  0  0  0  0  4           0  0  0
   -8.4712   -0.0000    5.6245 C   0  0  0  0  0  4           0  0  0
  1  7  2  0     0  0
  2  8  2  0     0  0
  3  7  1  0     0  0
  3 10  1  0     0  0
  4  8  1  0     0  0
  4 11  1  0     0  0
  5  9  1  0     0  0
  6 12  1  0     0  0
  7 13  1  0     0  0
  8 13  1  0     0  0
  9 10  1  0     0  0
  9 13  2  0     0  0
 10 12  1  0     0  0
 11 14  1  0     0  0
 14 15  1  0     0  0
 15 16  1  0     0  0
 16 17  1  0     0  0
 17 18  1  0     0  0
 18 19  1  0     0  0
 19 20  1  0     0  0
 20 21  1  0     0  0
 21 22  1  0     0  0
 22 23  1  0     0  0
 23 24  1  0     0  0
M  END
> <standard_type>
IC50

> <# Confs.>
25

> <canonical_smiles>
O=C1C(C(OCCCCCCCCCCCC)=O)=C(O)[C@@H](CO)O1

> <standard_relation>
=

> <predicted_activity_value>
4.853871964321762

> <actual_activity_value>
4.939302159646388

> <Compound>
15

> <publication_ID>
nan

> <standard_units>
nM

> hash
4094064075501186078

$$$$
15_
XXILIB    08252103493D 0   0.00000     0.00000

 24 24  0     1  0            999 V2000
    3.7327    3.5611    0.6399 O   0  0  0  0  0  2           0  0  0
    6.2893    0.5257   -1.1030 O   0  0  0  0  0  2           0  0  0
    5.7242    4.5346    1.2289 O   0  0  0  0  0  2           0  0  0
    4.1101    1.1732   -0.7291 O   0  0  0  0  0  2           0  0  0
    8.2453    2.3390   -0.0302 O   0  0  0  0  0  2           0  0  0
    7.1437    5.5500   -1.0070 O   0  0  0  0  0  2           0  0  0
    4.9519    3.5657    0.6505 C   0  0  0  0  0  4           0  0  0
    5.4576    1.3028   -0.6543 C   0  0  0  0  0  4           0  0  0
    7.0719    2.9538    0.3007 C   0  0  0  0  0  4           0  0  0
    7.1148    4.2352    1.0379 C   0  0  1  0  0  4           0  0  0
    3.6405    0.0000   -1.4064 C   0  0  0  0  0  4           0  0  0
    7.7599    5.3779    0.2649 C   0  0  0  0  0  4           0  0  0
    5.8275    2.5390    0.0580 C   0  0  0  0  0  4           0  0  0
    2.1190    0.0000   -1.4064 C   0  0  0  0  0  4           0  0  0
    1.5262   -0.0000    0.0000 C   0  0  0  0  0  4           0  0  0
    0.0000   -0.0000    0.0000 C   0  0  0  0  0  4           0  0  0
   -0.5927    0.0000    1.4064 C   0  0  0  0  0  4           0  0  0
   -0.1749    1.2180    2.2258 C   0  0  0  0  0  4           0  0  0
   -0.7676    1.2180    3.6322 C   0  0  0  0  0  4           0  0  0
   -0.3498    2.4360    4.4515 C   0  0  0  0  0  4           0  0  0
   -0.9425    2.4360    5.8580 C   0  0  0  0  0  4           0  0  0
   -0.5247    3.6540    6.6773 C   0  0  0  0  0  4           0  0  0
   -1.1174    3.6540    8.0837 C   0  0  0  0  0  4           0  0  0
   -0.7002    4.8687    8.8995 C   0  0  0  0  0  4           0  0  0
  1  7  2  0     0  0
  2  8  2  0     0  0
  3  7  1  0     0  0
  3 10  1  0     0  0
  4  8  1  0     0  0
  4 11  1  0     0  0
  5  9  1  0     0  0
  6 12  1  0     0  0
  7 13  1  0     0  0
  8 13  1  0     0  0
  9 10  1  0     0  0
  9 13  2  0     0  0
 10 12  1  0     0  0
 11 14  1  0     0  0
 14 15  1  0     0  0
 15 16  1  0     0  0
 16 17  1  0     0  0
 17 18  1  0     0  0
 18 19  1  0     0  0
 19 20  1  0     0  0
 20 21  1  0     0  0
 21 22  1  0     0  0
 22 23  1  0     0  0
 23 24  1  0     0  0
M  END
> <standard_type>
IC50

> <# Confs.>
25

> <canonical_smiles>
O=C1C(C(OCCCCCCCCCCCC)=O)=C(O)[C@@H](CO)O1

> <standard_relation>
=

> <predicted_activity_value>
4.853871964321762

> <actual_activity_value>
4.939302159646388

> <Compound>
15

> <publication_ID>
nan

> <standard_units>
nM

> hash
4094064075501186078

$$$$
15_
XXILIB    08252103493D 0   0.00000     0.00000

 24 24  0     1  0            999 V2000
    3.8753    0.0977   -5.4535 O   0  0  0  0  0  2           0  0  0
    1.3031   -3.1240   -4.1148 O   0  0  0  0  0  2           0  0  0
    3.9595   -1.1206   -7.3949 O   0  0  0  0  0  2           0  0  0
    2.3011   -1.1334   -3.5235 O   0  0  0  0  0  2           0  0  0
    1.9164   -3.9876   -6.7874 O   0  0  0  0  0  2           0  0  0
    1.4922   -1.1117   -8.7944 O   0  0  0  0  0  2           0  0  0
    3.5521   -0.8756   -6.1128 C   0  0  0  0  0  4           0  0  0
    2.0126   -2.1584   -4.3627 C   0  0  0  0  0  4           0  0  0
    2.5957   -2.8060   -6.7045 C   0  0  0  0  0  4           0  0  0
    3.3757   -2.3419   -7.8722 C   0  0  1  0  0  4           0  0  0
    1.7024   -1.2143   -2.2232 C   0  0  0  0  0  4           0  0  0
    2.5327   -2.0335   -9.1024 C   0  0  0  0  0  4           0  0  0
    2.6761   -1.9731   -5.6656 C   0  0  0  0  0  4           0  0  0
    2.1190    0.0000   -1.4064 C   0  0  0  0  0  4           0  0  0
    1.5262    0.0000   -0.0000 C   0  0  0  0  0  4           0  0  0
    0.0000    0.0000    0.0000 C   0  0  0  0  0  4           0  0  0
   -0.5927   -0.0000    1.4064 C   0  0  0  0  0  4           0  0  0
   -2.1190   -0.0000    1.4064 C   0  0  0  0  0  4           0  0  0
   -2.7117    0.0000    2.8129 C   0  0  0  0  0  4           0  0  0
   -4.2380   -0.0000    2.8129 C   0  0  0  0  0  4           0  0  0
   -4.8307    0.0000    4.2193 C   0  0  0  0  0  4           0  0  0
   -6.3569   -0.0000    4.2193 C   0  0  0  0  0  4           0  0  0
   -6.9497    0.0000    5.6258 C   0  0  0  0  0  4           0  0  0
   -8.4712   -0.0000    5.6245 C   0  0  0  0  0  4           0  0  0
  1  7  2  0     0  0
  2  8  2  0     0  0
  3  7  1  0     0  0
  3 10  1  0     0  0
  4  8  1  0     0  0
  4 11  1  0     0  0
  5  9  1  0     0  0
  6 12  1  0     0  0
  7 13  1  0     0  0
  8 13  1  0     0  0
  9 10  1  0     0  0
  9 13  2  0     0  0
 10 12  1  0     0  0
 11 14  1  0     0  0
 14 15  1  0     0  0
 15 16  1  0     0  0
 16 17  1  0     0  0
 17 18  1  0     0  0
 18 19  1  0     0  0
 19 20  1  0     0  0
 20 21  1  0     0  0
 21 22  1  0     0  0
 22 23  1  0     0  0
 23 24  1  0     0  0
M  END
> <standard_type>
IC50

> <# Confs.>
25

> <canonical_smiles>
O=C1C(C(OCCCCCCCCCCCC)=O)=C(O)[C@@H](CO)O1

> <standard_relation>
=

> <predicted_activity_value>
4.853871964321762

> <actual_activity_value>
4.939302159646388

> <Compound>
15

> <publication_ID>
nan

> <standard_units>
nM

> hash
4094064075501186078

$$$$
15_
XXILIB    08252103493D 0   0.00000     0.00000

 24 24  0     1  0            999 V2000
    3.7327   -3.5527    0.6544 O   0  0  0  0  0  2           0  0  0
    6.2893   -0.5257   -1.1030 O   0  0  0  0  0  2           0  0  0
    5.7242   -4.5496    1.2030 O   0  0  0  0  0  2           0  0  0
    4.1101   -1.1732   -0.7291 O   0  0  0  0  0  2           0  0  0
    8.2453   -2.3613   -0.0689 O   0  0  0  0  0  2           0  0  0
    7.1437   -3.1209    3.2003 O   0  0  0  0  0  2           0  0  0
    4.9519   -3.5642    0.6530 C   0  0  0  0  0  4           0  0  0
    5.4576   -1.3028   -0.6543 C   0  0  0  0  0  4           0  0  0
    7.0719   -2.9553    0.2981 C   0  0  0  0  0  4           0  0  0
    7.1148   -4.2344    1.0392 C   0  0  1  0  0  4           0  0  0
    3.6405   -0.0000   -1.4064 C   0  0  0  0  0  4           0  0  0
    7.7599   -4.1364    2.4152 C   0  0  0  0  0  4           0  0  0
    5.8275   -2.5377    0.0602 C   0  0  0  0  0  4           0  0  0
    2.1190    0.0000   -1.4064 C   0  0  0  0  0  4           0  0  0
    1.5262    0.0000   -0.0000 C   0  0  0  0  0  4           0  0  0
   -0.0000    0.0000    0.0000 C   0  0  0  0  0  4           0  0  0
   -0.5927    0.0000    1.4064 C   0  0  0  0  0  4           0  0  0
   -0.1749   -1.2180    2.2258 C   0  0  0  0  0  4           0  0  0
   -0.7676   -1.2180    3.6322 C   0  0  0  0  0  4           0  0  0
   -0.3498   -2.4360    4.4515 C   0  0  0  0  0  4           0  0  0
   -0.9425   -2.4360    5.8580 C   0  0  0  0  0  4           0  0  0
   -0.5247   -3.6540    6.6773 C   0  0  0  0  0  4           0  0  0
   -1.1174   -3.6540    8.0837 C   0  0  0  0  0  4           0  0  0
   -0.7002   -4.8687    8.8995 C   0  0  0  0  0  4           0  0  0
  1  7  2  0     0  0
  2  8  2  0     0  0
  3  7  1  0     0  0
  3 10  1  0     0  0
  4  8  1  0     0  0
  4 11  1  0     0  0
  5  9  1  0     0  0
  6 12  1  0     0  0
  7 13  1  0     0  0
  8 13  1  0     0  0
  9 10  1  0     0  0
  9 13  2  0     0  0
 10 12  1  0     0  0
 11 14  1  0     0  0
 14 15  1  0     0  0
 15 16  1  0     0  0
 16 17  1  0     0  0
 17 18  1  0     0  0
 18 19  1  0     0  0
 19 20  1  0     0  0
 20 21  1  0     0  0
 21 22  1  0     0  0
 22 23  1  0     0  0
 23 24  1  0     0  0
M  END
> <standard_type>
IC50

> <# Confs.>
25

> <canonical_smiles>
O=C1C(C(OCCCCCCCCCCCC)=O)=C(O)[C@@H](CO)O1

> <standard_relation>
=

> <predicted_activity_value>
4.853871964321762

> <actual_activity_value>
4.939302159646388

> <Compound>
15

> <publication_ID>
nan

> <standard_units>
nM

> hash
4094064075501186078

$$$$
15_
XXILIB    08252103493D 0   0.00000     0.00000

 24 24  0     1  0            999 V2000
    3.7327   -4.7707    2.7641 O   0  0  0  0  0  2           0  0  0
    6.2893   -1.7437    1.0067 O   0  0  0  0  0  2           0  0  0
    5.7242   -5.7676    3.3126 O   0  0  0  0  0  2           0  0  0
    4.1101   -2.3912    1.3806 O   0  0  0  0  0  2           0  0  0
    8.2453   -3.5793    2.0407 O   0  0  0  0  0  2           0  0  0
    7.1437   -4.3389    5.3100 O   0  0  0  0  0  2           0  0  0
    4.9519   -4.7822    2.7627 C   0  0  0  0  0  4           0  0  0
    5.4576   -2.5208    1.4554 C   0  0  0  0  0  4           0  0  0
    7.0719   -4.1733    2.4077 C   0  0  0  0  0  4           0  0  0
    7.1148   -5.4524    3.1488 C   0  0  1  0  0  4           0  0  0
    3.6405   -1.2180    0.7032 C   0  0  0  0  0  4           0  0  0
    7.7599   -5.3544    4.5249 C   0  0  0  0  0  4           0  0  0
    5.8275   -3.7557    2.1698 C   0  0  0  0  0  4           0  0  0
    2.1190   -1.2180    0.7032 C   0  0  0  0  0  4           0  0  0
    1.5262    0.0000    0.0000 C   0  0  0  0  0  4           0  0  0
    0.0000    0.0000    0.0000 C   0  0  0  0  0  4           0  0  0
   -0.5927   -0.0000    1.4064 C   0  0  0  0  0  4           0  0  0
   -2.1190   -0.0000    1.4064 C   0  0  0  0  0  4           0  0  0
   -2.7117    0.0000    2.8129 C   0  0  0  0  0  4           0  0  0
   -4.2380   -0.0000    2.8129 C   0  0  0  0  0  4           0  0  0
   -4.8307    0.0000    4.2193 C   0  0  0  0  0  4           0  0  0
   -6.3569   -0.0000    4.2193 C   0  0  0  0  0  4           0  0  0
   -6.9497    0.0000    5.6258 C   0  0  0  0  0  4           0  0  0
   -8.4712   -0.0000    5.6245 C   0  0  0  0  0  4           0  0  0
  1  7  2  0     0  0
  2  8  2  0     0  0
  3  7  1  0     0  0
  3 10  1  0     0  0
  4  8  1  0     0  0
  4 11  1  0     0  0
  5  9  1  0     0  0
  6 12  1  0     0  0
  7 13  1  0     0  0
  8 13  1  0     0  0
  9 10  1  0     0  0
  9 13  2  0     0  0
 10 12  1  0     0  0
 11 14  1  0     0  0
 14 15  1  0     0  0
 15 16  1  0     0  0
 16 17  1  0     0  0
 17 18  1  0     0  0
 18 19  1  0     0  0
 19 20  1  0     0  0
 20 21  1  0     0  0
 21 22  1  0     0  0
 22 23  1  0     0  0
 23 24  1  0     0  0
M  END
> <standard_type>
IC50

> <# Confs.>
25

> <canonical_smiles>
O=C1C(C(OCCCCCCCCCCCC)=O)=C(O)[C@@H](CO)O1

> <standard_relation>
=

> <predicted_activity_value>
4.853871964321762

> <actual_activity_value>
4.939302159646388

> <Compound>
15

> <publication_ID>
nan

> <standard_units>
nM

> hash
4094064075501186078

$$$$
15_
XXILIB    08252103493D 0   0.00000     0.00000

 24 24  0     1  0            999 V2000
    3.7327   -0.0084   -5.5136 O   0  0  0  0  0  2           0  0  0
    6.2893   -0.0000   -2.0134 O   0  0  0  0  0  2           0  0  0
    5.7242    0.0150   -6.6512 O   0  0  0  0  0  2           0  0  0
    4.1101    0.0000   -2.7611 O   0  0  0  0  0  2           0  0  0
    8.2453    0.0224   -4.1202 O   0  0  0  0  0  2           0  0  0
    7.1437   -2.4291   -6.4126 O   0  0  0  0  0  2           0  0  0
    4.9519   -0.0014   -5.5229 C   0  0  0  0  0  4           0  0  0
    5.4576    0.0000   -2.9108 C   0  0  0  0  0  4           0  0  0
    7.0719    0.0015   -4.8181 C   0  0  0  0  0  4           0  0  0
    7.1148   -0.0007   -6.2963 C   0  0  1  0  0  4           0  0  0
    3.6405    0.0000   -1.4064 C   0  0  0  0  0  4           0  0  0
    7.7599   -1.2415   -6.8995 C   0  0  0  0  0  4           0  0  0
    5.8275   -0.0013   -4.3375 C   0  0  0  0  0  4           0  0  0
    2.1190    0.0000   -1.4064 C   0  0  0  0  0  4           0  0  0
    1.5262    0.0000    0.0000 C   0  0  0  0  0  4           0  0  0
    0.0000   -0.0000    0.0000 C   0  0  0  0  0  4           0  0  0
   -0.5927   -0.0000    1.4064 C   0  0  0  0  0  4           0  0  0
   -2.1190   -0.0000    1.4064 C   0  0  0  0  0  4           0  0  0
   -2.7117   -1.2180    0.7032 C   0  0  0  0  0  4           0  0  0
   -4.2380   -1.2180    0.7032 C   0  0  0  0  0  4           0  0  0
   -4.8307   -2.4360    0.0000 C   0  0  0  0  0  4           0  0  0
   -6.3569   -2.4360    0.0000 C   0  0  0  0  0  4           0  0  0
   -6.9497   -3.6540   -0.7032 C   0  0  0  0  0  4           0  0  0
   -8.4712   -3.6530   -0.7026 C   0  0  0  0  0  4           0  0  0
  1  7  2  0     0  0
  2  8  2  0     0  0
  3  7  1  0     0  0
  3 10  1  0     0  0
  4  8  1  0     0  0
  4 11  1  0     0  0
  5  9  1  0     0  0
  6 12  1  0     0  0
  7 13  1  0     0  0
  8 13  1  0     0  0
  9 10  1  0     0  0
  9 13  2  0     0  0
 10 12  1  0     0  0
 11 14  1  0     0  0
 14 15  1  0     0  0
 15 16  1  0     0  0
 16 17  1  0     0  0
 17 18  1  0     0  0
 18 19  1  0     0  0
 19 20  1  0     0  0
 20 21  1  0     0  0
 21 22  1  0     0  0
 22 23  1  0     0  0
 23 24  1  0     0  0
M  END
> <standard_type>
IC50

> <# Confs.>
25

> <canonical_smiles>
O=C1C(C(OCCCCCCCCCCCC)=O)=C(O)[C@@H](CO)O1

> <standard_relation>
=

> <predicted_activity_value>
4.853871964321762

> <actual_activity_value>
4.939302159646388

> <Compound>
15

> <publication_ID>
nan

> <standard_units>
nM

> hash
4094064075501186078

$$$$
15_
XXILIB    08252103493D 0   0.00000     0.00000

 24 24  0     1  0            999 V2000
    3.7327   -0.0084   -5.5136 O   0  0  0  0  0  2           0  0  0
    6.2893   -0.0000   -2.0134 O   0  0  0  0  0  2           0  0  0
    5.7242    0.0150   -6.6512 O   0  0  0  0  0  2           0  0  0
    4.1101    0.0000   -2.7611 O   0  0  0  0  0  2           0  0  0
    8.2453    0.0224   -4.1202 O   0  0  0  0  0  2           0  0  0
    7.1437   -2.4291   -6.4126 O   0  0  0  0  0  2           0  0  0
    4.9519   -0.0014   -5.5229 C   0  0  0  0  0  4           0  0  0
    5.4576    0.0000   -2.9108 C   0  0  0  0  0  4           0  0  0
    7.0719    0.0015   -4.8181 C   0  0  0  0  0  4           0  0  0
    7.1148   -0.0007   -6.2963 C   0  0  1  0  0  4           0  0  0
    3.6405    0.0000   -1.4064 C   0  0  0  0  0  4           0  0  0
    7.7599   -1.2415   -6.8995 C   0  0  0  0  0  4           0  0  0
    5.8275   -0.0013   -4.3375 C   0  0  0  0  0  4           0  0  0
    2.1190    0.0000   -1.4064 C   0  0  0  0  0  4           0  0  0
    1.5262    0.0000    0.0000 C   0  0  0  0  0  4           0  0  0
    0.0000   -0.0000    0.0000 C   0  0  0  0  0  4           0  0  0
   -0.5927    0.0000    1.4064 C   0  0  0  0  0  4           0  0  0
   -0.1749    1.2180    2.2258 C   0  0  0  0  0  4           0  0  0
   -0.7676    1.2180    3.6322 C   0  0  0  0  0  4           0  0  0
   -0.3498    2.4360    4.4515 C   0  0  0  0  0  4           0  0  0
   -0.9425    2.4360    5.8580 C   0  0  0  0  0  4           0  0  0
   -0.5247    3.6540    6.6773 C   0  0  0  0  0  4           0  0  0
   -1.1174    3.6540    8.0837 C   0  0  0  0  0  4           0  0  0
   -0.7002    4.8687    8.8995 C   0  0  0  0  0  4           0  0  0
  1  7  2  0     0  0
  2  8  2  0     0  0
  3  7  1  0     0  0
  3 10  1  0     0  0
  4  8  1  0     0  0
  4 11  1  0     0  0
  5  9  1  0     0  0
  6 12  1  0     0  0
  7 13  1  0     0  0
  8 13  1  0     0  0
  9 10  1  0     0  0
  9 13  2  0     0  0
 10 12  1  0     0  0
 11 14  1  0     0  0
 14 15  1  0     0  0
 15 16  1  0     0  0
 16 17  1  0     0  0
 17 18  1  0     0  0
 18 19  1  0     0  0
 19 20  1  0     0  0
 20 21  1  0     0  0
 21 22  1  0     0  0
 22 23  1  0     0  0
 23 24  1  0     0  0
M  END
> <standard_type>
IC50

> <# Confs.>
25

> <canonical_smiles>
O=C1C(C(OCCCCCCCCCCCC)=O)=C(O)[C@@H](CO)O1

> <standard_relation>
=

> <predicted_activity_value>
4.853871964321762

> <actual_activity_value>
4.939302159646388

> <Compound>
15

> <publication_ID>
nan

> <standard_units>
nM

> hash
4094064075501186078

$$$$
15_
XXILIB    08252103493D 0   0.00000     0.00000

 24 24  0     1  0            999 V2000
    3.7327   -0.0084   -5.5136 O   0  0  0  0  0  2           0  0  0
    6.2893   -0.0000   -2.0134 O   0  0  0  0  0  2           0  0  0
    5.7242    0.0150   -6.6512 O   0  0  0  0  0  2           0  0  0
    4.1101    0.0000   -2.7611 O   0  0  0  0  0  2           0  0  0
    8.2453    0.0224   -4.1202 O   0  0  0  0  0  2           0  0  0
    7.1437   -2.4291   -6.4126 O   0  0  0  0  0  2           0  0  0
    4.9519   -0.0014   -5.5229 C   0  0  0  0  0  4           0  0  0
    5.4576    0.0000   -2.9108 C   0  0  0  0  0  4           0  0  0
    7.0719    0.0015   -4.8181 C   0  0  0  0  0  4           0  0  0
    7.1148   -0.0007   -6.2963 C   0  0  1  0  0  4           0  0  0
    3.6405    0.0000   -1.4064 C   0  0  0  0  0  4           0  0  0
    7.7599   -1.2415   -6.8995 C   0  0  0  0  0  4           0  0  0
    5.8275   -0.0013   -4.3375 C   0  0  0  0  0  4           0  0  0
    2.1190    0.0000   -1.4064 C   0  0  0  0  0  4           0  0  0
    1.5262    0.0000    0.0000 C   0  0  0  0  0  4           0  0  0
    0.0000   -0.0000    0.0000 C   0  0  0  0  0  4           0  0  0
   -0.5927    0.0000    1.4064 C   0  0  0  0  0  4           0  0  0
   -2.1190   -0.0000    1.4064 C   0  0  0  0  0  4           0  0  0
   -2.7117    0.0000    2.8129 C   0  0  0  0  0  4           0  0  0
   -2.2939    1.2180    3.6322 C   0  0  0  0  0  4           0  0  0
   -2.8866    1.2180    5.0386 C   0  0  0  0  0  4           0  0  0
   -2.4688    2.4360    5.8580 C   0  0  0  0  0  4           0  0  0
   -3.0615    2.4360    7.2644 C   0  0  0  0  0  4           0  0  0
   -2.6443    3.6507    8.0802 C   0  0  0  0  0  4           0  0  0
  1  7  2  0     0  0
  2  8  2  0     0  0
  3  7  1  0     0  0
  3 10  1  0     0  0
  4  8  1  0     0  0
  4 11  1  0     0  0
  5  9  1  0     0  0
  6 12  1  0     0  0
  7 13  1  0     0  0
  8 13  1  0     0  0
  9 10  1  0     0  0
  9 13  2  0     0  0
 10 12  1  0     0  0
 11 14  1  0     0  0
 14 15  1  0     0  0
 15 16  1  0     0  0
 16 17  1  0     0  0
 17 18  1  0     0  0
 18 19  1  0     0  0
 19 20  1  0     0  0
 20 21  1  0     0  0
 21 22  1  0     0  0
 22 23  1  0     0  0
 23 24  1  0     0  0
M  END
> <standard_type>
IC50

> <# Confs.>
25

> <canonical_smiles>
O=C1C(C(OCCCCCCCCCCCC)=O)=C(O)[C@@H](CO)O1

> <standard_relation>
=

> <predicted_activity_value>
4.853871964321762

> <actual_activity_value>
4.939302159646388

> <Compound>
15

> <publication_ID>
nan

> <standard_units>
nM

> hash
4094064075501186078

$$$$
15_
XXILIB    08252103493D 0   0.00000     0.00000

 24 24  0     1  0            999 V2000
    3.7327   -0.0084   -5.5136 O   0  0  0  0  0  2           0  0  0
    6.2893   -0.0000   -2.0134 O   0  0  0  0  0  2           0  0  0
    5.7242    0.0150   -6.6512 O   0  0  0  0  0  2           0  0  0
    4.1101    0.0000   -2.7611 O   0  0  0  0  0  2           0  0  0
    8.2453    0.0224   -4.1202 O   0  0  0  0  0  2           0  0  0
    7.1437   -2.4291   -6.4126 O   0  0  0  0  0  2           0  0  0
    4.9519   -0.0014   -5.5229 C   0  0  0  0  0  4           0  0  0
    5.4576    0.0000   -2.9108 C   0  0  0  0  0  4           0  0  0
    7.0719    0.0015   -4.8181 C   0  0  0  0  0  4           0  0  0
    7.1148   -0.0007   -6.2963 C   0  0  1  0  0  4           0  0  0
    3.6405    0.0000   -1.4064 C   0  0  0  0  0  4           0  0  0
    7.7599   -1.2415   -6.8995 C   0  0  0  0  0  4           0  0  0
    5.8275   -0.0013   -4.3375 C   0  0  0  0  0  4           0  0  0
    2.1190    0.0000   -1.4064 C   0  0  0  0  0  4           0  0  0
    1.5262    0.0000    0.0000 C   0  0  0  0  0  4           0  0  0
    0.0000    0.0000    0.0000 C   0  0  0  0  0  4           0  0  0
   -0.5927    0.0000    1.4064 C   0  0  0  0  0  4           0  0  0
   -2.1190   -0.0000    1.4064 C   0  0  0  0  0  4           0  0  0
   -2.7117    0.0000    2.8129 C   0  0  0  0  0  4           0  0  0
   -4.2380   -0.0000    2.8129 C   0  0  0  0  0  4           0  0  0
   -4.8307   -1.2180    2.1097 C   0  0  0  0  0  4           0  0  0
   -6.3569   -1.2180    2.1097 C   0  0  0  0  0  4           0  0  0
   -6.9497   -2.4360    1.4064 C   0  0  0  0  0  4           0  0  0
   -8.4712   -2.4349    1.4071 C   0  0  0  0  0  4           0  0  0
  1  7  2  0     0  0
  2  8  2  0     0  0
  3  7  1  0     0  0
  3 10  1  0     0  0
  4  8  1  0     0  0
  4 11  1  0     0  0
  5  9  1  0     0  0
  6 12  1  0     0  0
  7 13  1  0     0  0
  8 13  1  0     0  0
  9 10  1  0     0  0
  9 13  2  0     0  0
 10 12  1  0     0  0
 11 14  1  0     0  0
 14 15  1  0     0  0
 15 16  1  0     0  0
 16 17  1  0     0  0
 17 18  1  0     0  0
 18 19  1  0     0  0
 19 20  1  0     0  0
 20 21  1  0     0  0
 21 22  1  0     0  0
 22 23  1  0     0  0
 23 24  1  0     0  0
M  END
> <standard_type>
IC50

> <# Confs.>
25

> <canonical_smiles>
O=C1C(C(OCCCCCCCCCCCC)=O)=C(O)[C@@H](CO)O1

> <standard_relation>
=

> <predicted_activity_value>
4.853871964321762

> <actual_activity_value>
4.939302159646388

> <Compound>
15

> <publication_ID>
nan

> <standard_units>
nM

> hash
4094064075501186078

$$$$
15_
XXILIB    08252103493D 0   0.00000     0.00000

 24 24  0     1  0            999 V2000
    3.7327    3.5611    0.6399 O   0  0  0  0  0  2           0  0  0
    6.2893    0.5257   -1.1030 O   0  0  0  0  0  2           0  0  0
    5.7242    4.5346    1.2289 O   0  0  0  0  0  2           0  0  0
    4.1101    1.1732   -0.7291 O   0  0  0  0  0  2           0  0  0
    8.2453    2.3390   -0.0302 O   0  0  0  0  0  2           0  0  0
    7.1437    5.5500   -1.0070 O   0  0  0  0  0  2           0  0  0
    4.9519    3.5657    0.6505 C   0  0  0  0  0  4           0  0  0
    5.4576    1.3028   -0.6543 C   0  0  0  0  0  4           0  0  0
    7.0719    2.9538    0.3007 C   0  0  0  0  0  4           0  0  0
    7.1148    4.2352    1.0379 C   0  0  1  0  0  4           0  0  0
    3.6405    0.0000   -1.4064 C   0  0  0  0  0  4           0  0  0
    7.7599    5.3779    0.2649 C   0  0  0  0  0  4           0  0  0
    5.8275    2.5390    0.0580 C   0  0  0  0  0  4           0  0  0
    2.1190    0.0000   -1.4064 C   0  0  0  0  0  4           0  0  0
    1.5262   -0.0000    0.0000 C   0  0  0  0  0  4           0  0  0
    0.0000   -0.0000    0.0000 C   0  0  0  0  0  4           0  0  0
   -0.5927    0.0000    1.4064 C   0  0  0  0  0  4           0  0  0
   -2.1190   -0.0000    1.4064 C   0  0  0  0  0  4           0  0  0
   -2.7117    0.0000    2.8129 C   0  0  0  0  0  4           0  0  0
   -2.2939    1.2180    3.6322 C   0  0  0  0  0  4           0  0  0
   -2.8866    1.2180    5.0386 C   0  0  0  0  0  4           0  0  0
   -2.4688    2.4360    5.8580 C   0  0  0  0  0  4           0  0  0
   -3.0615    2.4360    7.2644 C   0  0  0  0  0  4           0  0  0
   -2.6443    3.6507    8.0802 C   0  0  0  0  0  4           0  0  0
  1  7  2  0     0  0
  2  8  2  0     0  0
  3  7  1  0     0  0
  3 10  1  0     0  0
  4  8  1  0     0  0
  4 11  1  0     0  0
  5  9  1  0     0  0
  6 12  1  0     0  0
  7 13  1  0     0  0
  8 13  1  0     0  0
  9 10  1  0     0  0
  9 13  2  0     0  0
 10 12  1  0     0  0
 11 14  1  0     0  0
 14 15  1  0     0  0
 15 16  1  0     0  0
 16 17  1  0     0  0
 17 18  1  0     0  0
 18 19  1  0     0  0
 19 20  1  0     0  0
 20 21  1  0     0  0
 21 22  1  0     0  0
 22 23  1  0     0  0
 23 24  1  0     0  0
M  END
> <standard_type>
IC50

> <# Confs.>
25

> <canonical_smiles>
O=C1C(C(OCCCCCCCCCCCC)=O)=C(O)[C@@H](CO)O1

> <standard_relation>
=

> <predicted_activity_value>
4.853871964321762

> <actual_activity_value>
4.939302159646388

> <Compound>
15

> <publication_ID>
nan

> <standard_units>
nM

> hash
4094064075501186078

$$$$
15_
XXILIB    08252103493D 0   0.00000     0.00000

 24 24  0     1  0            999 V2000
    3.7327   -0.0084   -5.5136 O   0  0  0  0  0  2           0  0  0
    6.2893   -0.0000   -2.0134 O   0  0  0  0  0  2           0  0  0
    5.7242    0.0150   -6.6512 O   0  0  0  0  0  2           0  0  0
    4.1101    0.0000   -2.7611 O   0  0  0  0  0  2           0  0  0
    8.2453    0.0224   -4.1202 O   0  0  0  0  0  2           0  0  0
    7.1437   -2.4291   -6.4126 O   0  0  0  0  0  2           0  0  0
    4.9519   -0.0014   -5.5229 C   0  0  0  0  0  4           0  0  0
    5.4576    0.0000   -2.9108 C   0  0  0  0  0  4           0  0  0
    7.0719    0.0015   -4.8181 C   0  0  0  0  0  4           0  0  0
    7.1148   -0.0007   -6.2963 C   0  0  1  0  0  4           0  0  0
    3.6405    0.0000   -1.4064 C   0  0  0  0  0  4           0  0  0
    7.7599   -1.2415   -6.8995 C   0  0  0  0  0  4           0  0  0
    5.8275   -0.0013   -4.3375 C   0  0  0  0  0  4           0  0  0
    2.1190    0.0000   -1.4064 C   0  0  0  0  0  4           0  0  0
    1.5262    0.0000    0.0000 C   0  0  0  0  0  4           0  0  0
    0.0000    0.0000    0.0000 C   0  0  0  0  0  4           0  0  0
   -0.5927   -0.0000    1.4064 C   0  0  0  0  0  4           0  0  0
   -2.1190   -0.0000    1.4064 C   0  0  0  0  0  4           0  0  0
   -2.7117    0.0000    2.8129 C   0  0  0  0  0  4           0  0  0
   -4.2380   -0.0000    2.8129 C   0  0  0  0  0  4           0  0  0
   -4.8307    0.0000    4.2193 C   0  0  0  0  0  4           0  0  0
   -4.4129    1.2180    5.0386 C   0  0  0  0  0  4           0  0  0
   -5.0056    1.2180    6.4451 C   0  0  0  0  0  4           0  0  0
   -4.5884    2.4327    7.2609 C   0  0  0  0  0  4           0  0  0
  1  7  2  0     0  0
  2  8  2  0     0  0
  3  7  1  0     0  0
  3 10  1  0     0  0
  4  8  1  0     0  0
  4 11  1  0     0  0
  5  9  1  0     0  0
  6 12  1  0     0  0
  7 13  1  0     0  0
  8 13  1  0     0  0
  9 10  1  0     0  0
  9 13  2  0     0  0
 10 12  1  0     0  0
 11 14  1  0     0  0
 14 15  1  0     0  0
 15 16  1  0     0  0
 16 17  1  0     0  0
 17 18  1  0     0  0
 18 19  1  0     0  0
 19 20  1  0     0  0
 20 21  1  0     0  0
 21 22  1  0     0  0
 22 23  1  0     0  0
 23 24  1  0     0  0
M  END
> <standard_type>
IC50

> <# Confs.>
25

> <canonical_smiles>
O=C1C(C(OCCCCCCCCCCCC)=O)=C(O)[C@@H](CO)O1

> <standard_relation>
=

> <predicted_activity_value>
4.853871964321762

> <actual_activity_value>
4.939302159646388

> <Compound>
15

> <publication_ID>
nan

> <standard_units>
nM

> hash
4094064075501186078

$$$$
15_
XXILIB    08252103493D 0   0.00000     0.00000

 24 24  0     1  0            999 V2000
    3.7327    3.5611    0.6399 O   0  0  0  0  0  2           0  0  0
    6.2893    0.5257   -1.1030 O   0  0  0  0  0  2           0  0  0
    5.7242    4.5346    1.2289 O   0  0  0  0  0  2           0  0  0
    4.1101    1.1732   -0.7291 O   0  0  0  0  0  2           0  0  0
    8.2453    2.3390   -0.0302 O   0  0  0  0  0  2           0  0  0
    7.1437    5.5500   -1.0070 O   0  0  0  0  0  2           0  0  0
    4.9519    3.5657    0.6505 C   0  0  0  0  0  4           0  0  0
    5.4576    1.3028   -0.6543 C   0  0  0  0  0  4           0  0  0
    7.0719    2.9538    0.3007 C   0  0  0  0  0  4           0  0  0
    7.1148    4.2352    1.0379 C   0  0  1  0  0  4           0  0  0
    3.6405    0.0000   -1.4064 C   0  0  0  0  0  4           0  0  0
    7.7599    5.3779    0.2649 C   0  0  0  0  0  4           0  0  0
    5.8275    2.5390    0.0580 C   0  0  0  0  0  4           0  0  0
    2.1190    0.0000   -1.4064 C   0  0  0  0  0  4           0  0  0
    1.5262   -0.0000    0.0000 C   0  0  0  0  0  4           0  0  0
    0.0000    0.0000    0.0000 C   0  0  0  0  0  4           0  0  0
   -0.5927    0.0000    1.4064 C   0  0  0  0  0  4           0  0  0
   -2.1190   -0.0000    1.4064 C   0  0  0  0  0  4           0  0  0
   -2.7117    0.0000    2.8129 C   0  0  0  0  0  4           0  0  0
   -4.2380   -0.0000    2.8129 C   0  0  0  0  0  4           0  0  0
   -4.8307   -1.2180    2.1097 C   0  0  0  0  0  4           0  0  0
   -6.3569   -1.2180    2.1097 C   0  0  0  0  0  4           0  0  0
   -6.9497   -2.4360    1.4064 C   0  0  0  0  0  4           0  0  0
   -8.4712   -2.4349    1.4071 C   0  0  0  0  0  4           0  0  0
  1  7  2  0     0  0
  2  8  2  0     0  0
  3  7  1  0     0  0
  3 10  1  0     0  0
  4  8  1  0     0  0
  4 11  1  0     0  0
  5  9  1  0     0  0
  6 12  1  0     0  0
  7 13  1  0     0  0
  8 13  1  0     0  0
  9 10  1  0     0  0
  9 13  2  0     0  0
 10 12  1  0     0  0
 11 14  1  0     0  0
 14 15  1  0     0  0
 15 16  1  0     0  0
 16 17  1  0     0  0
 17 18  1  0     0  0
 18 19  1  0     0  0
 19 20  1  0     0  0
 20 21  1  0     0  0
 21 22  1  0     0  0
 22 23  1  0     0  0
 23 24  1  0     0  0
M  END
> <standard_type>
IC50

> <# Confs.>
25

> <canonical_smiles>
O=C1C(C(OCCCCCCCCCCCC)=O)=C(O)[C@@H](CO)O1

> <standard_relation>
=

> <predicted_activity_value>
4.853871964321762

> <actual_activity_value>
4.939302159646388

> <Compound>
15

> <publication_ID>
nan

> <standard_units>
nM

> hash
4094064075501186078

$$$$
15_
XXILIB    08252103493D 0   0.00000     0.00000

 24 24  0     1  0            999 V2000
    3.7327    3.5611    0.6399 O   0  0  0  0  0  2           0  0  0
    6.2893    0.5257   -1.1030 O   0  0  0  0  0  2           0  0  0
    5.7242    4.5346    1.2289 O   0  0  0  0  0  2           0  0  0
    4.1101    1.1732   -0.7291 O   0  0  0  0  0  2           0  0  0
    8.2453    2.3390   -0.0302 O   0  0  0  0  0  2           0  0  0
    7.1437    5.5500   -1.0070 O   0  0  0  0  0  2           0  0  0
    4.9519    3.5657    0.6505 C   0  0  0  0  0  4           0  0  0
    5.4576    1.3028   -0.6543 C   0  0  0  0  0  4           0  0  0
    7.0719    2.9538    0.3007 C   0  0  0  0  0  4           0  0  0
    7.1148    4.2352    1.0379 C   0  0  1  0  0  4           0  0  0
    3.6405    0.0000   -1.4064 C   0  0  0  0  0  4           0  0  0
    7.7599    5.3779    0.2649 C   0  0  0  0  0  4           0  0  0
    5.8275    2.5390    0.0580 C   0  0  0  0  0  4           0  0  0
    2.1190    0.0000   -1.4064 C   0  0  0  0  0  4           0  0  0
    1.5262   -0.0000    0.0000 C   0  0  0  0  0  4           0  0  0
    0.0000   -0.0000    0.0000 C   0  0  0  0  0  4           0  0  0
   -0.5927   -0.0000    1.4064 C   0  0  0  0  0  4           0  0  0
   -2.1190   -0.0000    1.4064 C   0  0  0  0  0  4           0  0  0
   -2.7117   -1.2180    0.7032 C   0  0  0  0  0  4           0  0  0
   -4.2380   -1.2180    0.7032 C   0  0  0  0  0  4           0  0  0
   -4.8307   -2.4360    0.0000 C   0  0  0  0  0  4           0  0  0
   -6.3569   -2.4360    0.0000 C   0  0  0  0  0  4           0  0  0
   -6.9497   -3.6540   -0.7032 C   0  0  0  0  0  4           0  0  0
   -8.4712   -3.6530   -0.7026 C   0  0  0  0  0  4           0  0  0
  1  7  2  0     0  0
  2  8  2  0     0  0
  3  7  1  0     0  0
  3 10  1  0     0  0
  4  8  1  0     0  0
  4 11  1  0     0  0
  5  9  1  0     0  0
  6 12  1  0     0  0
  7 13  1  0     0  0
  8 13  1  0     0  0
  9 10  1  0     0  0
  9 13  2  0     0  0
 10 12  1  0     0  0
 11 14  1  0     0  0
 14 15  1  0     0  0
 15 16  1  0     0  0
 16 17  1  0     0  0
 17 18  1  0     0  0
 18 19  1  0     0  0
 19 20  1  0     0  0
 20 21  1  0     0  0
 21 22  1  0     0  0
 22 23  1  0     0  0
 23 24  1  0     0  0
M  END
> <standard_type>
IC50

> <# Confs.>
25

> <canonical_smiles>
O=C1C(C(OCCCCCCCCCCCC)=O)=C(O)[C@@H](CO)O1

> <standard_relation>
=

> <predicted_activity_value>
4.853871964321762

> <actual_activity_value>
4.939302159646388

> <Compound>
15

> <publication_ID>
nan

> <standard_units>
nM

> hash
4094064075501186078

$$$$
15_
XXILIB    08252103493D 0   0.00000     0.00000

 24 24  0     1  0            999 V2000
    3.7327    3.5611    0.6399 O   0  0  0  0  0  2           0  0  0
    6.2893    0.5257   -1.1030 O   0  0  0  0  0  2           0  0  0
    5.7242    4.5346    1.2289 O   0  0  0  0  0  2           0  0  0
    4.1101    1.1732   -0.7291 O   0  0  0  0  0  2           0  0  0
    8.2453    2.3390   -0.0302 O   0  0  0  0  0  2           0  0  0
    7.1437    5.5500   -1.0070 O   0  0  0  0  0  2           0  0  0
    4.9519    3.5657    0.6505 C   0  0  0  0  0  4           0  0  0
    5.4576    1.3028   -0.6543 C   0  0  0  0  0  4           0  0  0
    7.0719    2.9538    0.3007 C   0  0  0  0  0  4           0  0  0
    7.1148    4.2352    1.0379 C   0  0  1  0  0  4           0  0  0
    3.6405    0.0000   -1.4064 C   0  0  0  0  0  4           0  0  0
    7.7599    5.3779    0.2649 C   0  0  0  0  0  4           0  0  0
    5.8275    2.5390    0.0580 C   0  0  0  0  0  4           0  0  0
    2.1190    0.0000   -1.4064 C   0  0  0  0  0  4           0  0  0
    1.5262   -0.0000    0.0000 C   0  0  0  0  0  4           0  0  0
    0.0000    0.0000    0.0000 C   0  0  0  0  0  4           0  0  0
   -0.5927   -0.0000    1.4064 C   0  0  0  0  0  4           0  0  0
   -2.1190   -0.0000    1.4064 C   0  0  0  0  0  4           0  0  0
   -2.7117    0.0000    2.8129 C   0  0  0  0  0  4           0  0  0
   -4.2380   -0.0000    2.8129 C   0  0  0  0  0  4           0  0  0
   -4.8307    0.0000    4.2193 C   0  0  0  0  0  4           0  0  0
   -4.4129    1.2180    5.0386 C   0  0  0  0  0  4           0  0  0
   -5.0056    1.2180    6.4451 C   0  0  0  0  0  4           0  0  0
   -4.5884    2.4327    7.2609 C   0  0  0  0  0  4           0  0  0
  1  7  2  0     0  0
  2  8  2  0     0  0
  3  7  1  0     0  0
  3 10  1  0     0  0
  4  8  1  0     0  0
  4 11  1  0     0  0
  5  9  1  0     0  0
  6 12  1  0     0  0
  7 13  1  0     0  0
  8 13  1  0     0  0
  9 10  1  0     0  0
  9 13  2  0     0  0
 10 12  1  0     0  0
 11 14  1  0     0  0
 14 15  1  0     0  0
 15 16  1  0     0  0
 16 17  1  0     0  0
 17 18  1  0     0  0
 18 19  1  0     0  0
 19 20  1  0     0  0
 20 21  1  0     0  0
 21 22  1  0     0  0
 22 23  1  0     0  0
 23 24  1  0     0  0
M  END
> <standard_type>
IC50

> <# Confs.>
25

> <canonical_smiles>
O=C1C(C(OCCCCCCCCCCCC)=O)=C(O)[C@@H](CO)O1

> <standard_relation>
=

> <predicted_activity_value>
4.853871964321762

> <actual_activity_value>
4.939302159646388

> <Compound>
15

> <publication_ID>
nan

> <standard_units>
nM

> hash
4094064075501186078

$$$$
18_
XXILIB    08252103493D 0   0.00000     0.00000

 31 33  0     1  0            999 V2000
   -5.0572   -5.5465    5.3118 O   0  0  0  0  0  2           0  0  0
   -2.8275   -4.7923   10.0810 O   0  0  0  0  0  2           0  0  0
   -1.6985   -3.4493    7.9650 O   0  0  0  0  0  2           0  0  0
   -6.0201   -7.0030    7.3920 O   0  0  0  0  0  2           0  0  0
   -1.9485   -3.5522    3.3388 N   0  0  0  0  0  3           0  0  0
   -2.1640   -2.2728    3.8081 C   0  0  0  0  0  4           0  0  0
   -2.3390   -4.4804    4.2624 C   0  0  0  0  0  4           0  0  0
   -2.7148   -2.4086    5.0919 C   0  0  0  0  0  4           0  0  0
   -1.9132   -1.0181    3.2115 C   0  0  0  0  0  4           0  0  0
   -2.8196   -3.8142    5.3694 C   0  0  0  0  0  4           0  0  0
   -3.0325   -1.2322    5.8075 C   0  0  0  0  0  4           0  0  0
   -2.2506    0.1235    3.9577 C   0  0  0  0  0  4           0  0  0
   -2.7981    0.0187    5.2321 C   0  0  0  0  0  4           0  0  0
   -4.4887   -5.3943    6.3910 C   0  0  0  0  0  4           0  0  0
   -3.3074   -4.9836    8.9679 C   0  0  0  0  0  4           0  0  0
   -2.7831   -4.2862    7.7672 C   0  0  0  0  0  4           0  0  0
   -4.9730   -6.1254    7.5857 C   0  0  0  0  0  4           0  0  0
   -3.3146   -4.4710    6.5440 C   0  0  0  0  0  4           0  0  0
   -1.3487   -0.9718    1.8698 C   0  0  0  0  0  4           0  0  0
    2.3301   -0.9193   -0.5307 C   0  0  0  0  0  4           0  0  0
    0.0547   -5.0090   -1.1680 C   0  0  0  0  0  4           0  0  0
   -4.4210   -5.9276    8.7842 C   0  0  0  0  0  4           0  0  0
   -0.5542    0.0000    1.3912 C   0  0  0  0  0  4           0  0  0
    1.4995   -0.0000   -0.0000 C   0  0  0  0  0  4           0  0  0
    1.3126   -4.5823   -0.9461 C   0  0  0  0  0  4           0  0  0
    1.8927   -2.1706   -1.2299 C   0  0  0  0  0  4           0  0  0
    0.0000    0.0000    0.0000 C   0  0  0  0  0  4           0  0  0
    1.7500   -3.3309   -0.2469 C   0  0  0  0  0  4           0  0  0
    3.8235   -0.7350   -0.4341 C   0  0  0  0  0  4           0  0  0
   -0.1947   -6.3266   -1.8534 C   0  0  0  0  0  4           0  0  0
   -1.1930   -4.2640   -0.7873 C   0  0  0  0  0  4           0  0  0
  1 14  2  0     0  0
  2 15  2  0     0  0
  3 16  1  0     0  0
  4 17  1  0     0  0
  5  6  1  0     0  0
  5  7  1  0     0  0
  6  8  1  0     0  0
  6  9  2  0     0  0
  7 10  2  0     0  0
  8 10  1  0     0  0
  8 11  2  0     0  0
  9 12  1  0     0  0
  9 19  1  0     0  0
 10 18  1  0     0  0
 11 13  1  0     0  0
 12 13  2  0     0  0
 14 17  1  0     0  0
 14 18  1  0     0  0
 15 16  1  0     0  0
 15 22  1  0     0  0
 16 18  2  0     0  0
 17 22  2  0     0  0
 19 23  2  0     0  0
 20 24  2  0     0  0
 20 26  1  0     0  0
 20 29  1  0     0  0
 21 25  2  0     0  0
 21 30  1  0     0  0
 21 31  1  0     0  0
 23 27  1  0     0  0
 24 27  1  0     0  0
 25 28  1  0     0  0
 26 28  1  0     0  0
M  END
> <standard_type>
IC50

> <# Confs.>
25

> <canonical_smiles>
O=C1C=C(O)C(C(C2=CNC3=C(/C=C/C/C=C(C)/CC/C=C(C)/C)C=CC=C32)=C1O)=O

> <standard_relation>
=

> <predicted_activity_value>
4.481486060122113

> <actual_activity_value>
4.022276394711152

> <Compound>
18

> <publication_ID>
nan

> <standard_units>
nM

> hash
10709288634941402673

$$$$
18_
XXILIB    08252103493D 0   0.00000     0.00000

 31 33  0     1  0            999 V2000
   -5.7118    5.1397    5.0511 O   0  0  0  0  0  2           0  0  0
   -8.2212    1.4402    7.9325 O   0  0  0  0  0  2           0  0  0
   -6.3821    0.5386    6.0994 O   0  0  0  0  0  2           0  0  0
   -7.6726    5.9760    6.7338 O   0  0  0  0  0  2           0  0  0
   -4.0056    2.2738    2.5194 N   0  0  0  0  0  3           0  0  0
   -3.1548    1.6570    3.4135 C   0  0  0  0  0  4           0  0  0
   -5.1137    2.7560    3.1572 C   0  0  0  0  0  4           0  0  0
   -3.7638    1.7566    4.6740 C   0  0  0  0  0  4           0  0  0
   -1.9116    1.0191    3.2121 C   0  0  0  0  0  4           0  0  0
   -5.0069    2.4549    4.4981 C   0  0  0  0  0  4           0  0  0
   -3.0928    1.1947    5.7835 C   0  0  0  0  0  4           0  0  0
   -1.2785    0.4807    4.3449 C   0  0  0  0  0  4           0  0  0
   -1.8587    0.5651    5.6063 C   0  0  0  0  0  4           0  0  0
   -6.3133    4.2604    5.6642 C   0  0  0  0  0  4           0  0  0
   -7.6597    2.2788    7.2342 C   0  0  0  0  0  4           0  0  0
   -6.6340    1.8930    6.2333 C   0  0  0  0  0  4           0  0  0
   -7.3749    4.6326    6.6289 C   0  0  0  0  0  4           0  0  0
   -5.9953    2.8051    5.4762 C   0  0  0  0  0  4           0  0  0
   -1.3487    0.9718    1.8698 C   0  0  0  0  0  4           0  0  0
    2.3301   -0.9193   -0.5307 C   0  0  0  0  0  4           0  0  0
    0.0547   -5.0090   -1.1680 C   0  0  0  0  0  4           0  0  0
   -7.9964    3.7055    7.3600 C   0  0  0  0  0  4           0  0  0
   -0.5542    0.0000    1.3912 C   0  0  0  0  0  4           0  0  0
    1.4995   -0.0000   -0.0000 C   0  0  0  0  0  4           0  0  0
    1.3126   -4.5823   -0.9461 C   0  0  0  0  0  4           0  0  0
    1.8927   -2.1706   -1.2299 C   0  0  0  0  0  4           0  0  0
    0.0000    0.0000   -0.0000 C   0  0  0  0  0  4           0  0  0
    1.7500   -3.3309   -0.2469 C   0  0  0  0  0  4           0  0  0
    3.8235   -0.7350   -0.4341 C   0  0  0  0  0  4           0  0  0
   -0.1947   -6.3266   -1.8534 C   0  0  0  0  0  4           0  0  0
   -1.1930   -4.2640   -0.7873 C   0  0  0  0  0  4           0  0  0
  1 14  2  0     0  0
  2 15  2  0     0  0
  3 16  1  0     0  0
  4 17  1  0     0  0
  5  6  1  0     0  0
  5  7  1  0     0  0
  6  8  1  0     0  0
  6  9  2  0     0  0
  7 10  2  0     0  0
  8 10  1  0     0  0
  8 11  2  0     0  0
  9 12  1  0     0  0
  9 19  1  0     0  0
 10 18  1  0     0  0
 11 13  1  0     0  0
 12 13  2  0     0  0
 14 17  1  0     0  0
 14 18  1  0     0  0
 15 16  1  0     0  0
 15 22  1  0     0  0
 16 18  2  0     0  0
 17 22  2  0     0  0
 19 23  2  0     0  0
 20 24  2  0     0  0
 20 26  1  0     0  0
 20 29  1  0     0  0
 21 25  2  0     0  0
 21 30  1  0     0  0
 21 31  1  0     0  0
 23 27  1  0     0  0
 24 27  1  0     0  0
 25 28  1  0     0  0
 26 28  1  0     0  0
M  END
> <standard_type>
IC50

> <# Confs.>
25

> <canonical_smiles>
O=C1C=C(O)C(C(C2=CNC3=C(/C=C/C/C=C(C)/CC/C=C(C)/C)C=CC=C32)=C1O)=O

> <standard_relation>
=

> <predicted_activity_value>
4.481486060122113

> <actual_activity_value>
4.022276394711152

> <Compound>
18

> <publication_ID>
nan

> <standard_units>
nM

> hash
10709288634941402673

$$$$
18_
XXILIB    08252103493D 0   0.00000     0.00000

 31 33  0     1  0            999 V2000
   -1.2356   -5.5962    6.8946 O   0  0  0  0  0  2           0  0  0
   -6.2228   -4.8837    8.5989 O   0  0  0  0  0  2           0  0  0
   -5.4828   -3.5055    6.3388 O   0  0  0  0  0  2           0  0  0
   -1.9461   -6.7868    9.2298 O   0  0  0  0  0  2           0  0  0
   -1.9485   -3.5522    3.3388 N   0  0  0  0  0  3           0  0  0
   -2.1640   -2.2728    3.8081 C   0  0  0  0  0  4           0  0  0
   -2.3390   -4.4804    4.2624 C   0  0  0  0  0  4           0  0  0
   -2.7148   -2.4086    5.0919 C   0  0  0  0  0  4           0  0  0
   -1.9132   -1.0181    3.2115 C   0  0  0  0  0  4           0  0  0
   -2.8196   -3.8142    5.3694 C   0  0  0  0  0  4           0  0  0
   -3.0325   -1.2322    5.8075 C   0  0  0  0  0  4           0  0  0
   -2.2506    0.1235    3.9577 C   0  0  0  0  0  4           0  0  0
   -2.7981    0.0187    5.2321 C   0  0  0  0  0  4           0  0  0
   -2.3759   -5.3710    7.2944 C   0  0  0  0  0  4           0  0  0
   -5.0646   -5.0089    8.2133 C   0  0  0  0  0  4           0  0  0
   -4.5768   -4.3249    6.9897 C   0  0  0  0  0  4           0  0  0
   -2.8558   -6.0092    8.5429 C   0  0  0  0  0  4           0  0  0
   -3.3146   -4.4710    6.5440 C   0  0  0  0  0  4           0  0  0
   -1.3487   -0.9718    1.8698 C   0  0  0  0  0  4           0  0  0
    2.3301   -0.9193   -0.5307 C   0  0  0  0  0  4           0  0  0
    0.0547   -5.0090   -1.1680 C   0  0  0  0  0  4           0  0  0
   -4.1104   -5.8396    8.9643 C   0  0  0  0  0  4           0  0  0
   -0.5542    0.0000    1.3912 C   0  0  0  0  0  4           0  0  0
    1.4995   -0.0000   -0.0000 C   0  0  0  0  0  4           0  0  0
    1.3126   -4.5823   -0.9461 C   0  0  0  0  0  4           0  0  0
    1.8927   -2.1706   -1.2299 C   0  0  0  0  0  4           0  0  0
    0.0000    0.0000    0.0000 C   0  0  0  0  0  4           0  0  0
    1.7500   -3.3309   -0.2469 C   0  0  0  0  0  4           0  0  0
    3.8235   -0.7350   -0.4341 C   0  0  0  0  0  4           0  0  0
   -0.1947   -6.3266   -1.8534 C   0  0  0  0  0  4           0  0  0
   -1.1930   -4.2640   -0.7873 C   0  0  0  0  0  4           0  0  0
  1 14  2  0     0  0
  2 15  2  0     0  0
  3 16  1  0     0  0
  4 17  1  0     0  0
  5  6  1  0     0  0
  5  7  1  0     0  0
  6  8  1  0     0  0
  6  9  2  0     0  0
  7 10  2  0     0  0
  8 10  1  0     0  0
  8 11  2  0     0  0
  9 12  1  0     0  0
  9 19  1  0     0  0
 10 18  1  0     0  0
 11 13  1  0     0  0
 12 13  2  0     0  0
 14 17  1  0     0  0
 14 18  1  0     0  0
 15 16  1  0     0  0
 15 22  1  0     0  0
 16 18  2  0     0  0
 17 22  2  0     0  0
 19 23  2  0     0  0
 20 24  2  0     0  0
 20 26  1  0     0  0
 20 29  1  0     0  0
 21 25  2  0     0  0
 21 30  1  0     0  0
 21 31  1  0     0  0
 23 27  1  0     0  0
 24 27  1  0     0  0
 25 28  1  0     0  0
 26 28  1  0     0  0
M  END
> <standard_type>
IC50

> <# Confs.>
25

> <canonical_smiles>
O=C1C=C(O)C(C(C2=CNC3=C(/C=C/C/C=C(C)/CC/C=C(C)/C)C=CC=C32)=C1O)=O

> <standard_relation>
=

> <predicted_activity_value>
4.481486060122113

> <actual_activity_value>
4.022276394711152

> <Compound>
18

> <publication_ID>
nan

> <standard_units>
nM

> hash
10709288634941402673

$$$$
18_
XXILIB    08252103493D 0   0.00000     0.00000

 31 33  0     1  0            999 V2000
   -5.0172    5.5982    5.3027 O   0  0  0  0  0  2           0  0  0
   -2.7426    4.8905   10.0577 O   0  0  0  0  0  2           0  0  0
   -1.6464    3.5107    7.9482 O   0  0  0  0  0  2           0  0  0
   -6.1877    6.7903    7.4439 O   0  0  0  0  0  2           0  0  0
   -1.9785    3.5533    3.3243 N   0  0  0  0  0  3           0  0  0
   -2.1624    2.2743    3.8078 C   0  0  0  0  0  4           0  0  0
   -2.3650    4.4822    4.2489 C   0  0  0  0  0  4           0  0  0
   -2.6936    2.4110    5.0997 C   0  0  0  0  0  4           0  0  0
   -1.9116    1.0191    3.2121 C   0  0  0  0  0  4           0  0  0
   -2.8187    3.8168    5.3676 C   0  0  0  0  0  4           0  0  0
   -2.9818    1.2352    5.8286 C   0  0  0  0  0  4           0  0  0
   -2.2079   -0.1219    3.9764 C   0  0  0  0  0  4           0  0  0
   -2.7347   -0.0161    5.2595 C   0  0  0  0  0  4           0  0  0
   -4.5044    5.3741    6.3971 C   0  0  0  0  0  4           0  0  0
   -3.2781    5.0145    8.9606 C   0  0  0  0  0  4           0  0  0
   -2.7457    4.3297    7.7563 C   0  0  0  0  0  4           0  0  0
   -5.0601    6.0132    7.6132 C   0  0  0  0  0  4           0  0  0
   -3.3111    4.4746    6.5428 C   0  0  0  0  0  4           0  0  0
   -1.3487    0.9718    1.8698 C   0  0  0  0  0  4           0  0  0
    2.3301    1.0615    0.0000 C   0  0  0  0  0  4           0  0  0
    0.0547    4.9219   -1.4930 C   0  0  0  0  0  4           0  0  0
   -4.4826    5.8448    8.8043 C   0  0  0  0  0  4           0  0  0
   -0.5542    0.0000    1.3912 C   0  0  0  0  0  4           0  0  0
    1.4995    0.0000    0.0000 C   0  0  0  0  0  4           0  0  0
    1.3126    4.4414   -1.4718 C   0  0  0  0  0  4           0  0  0
    1.8927    2.4948   -0.0202 C   0  0  0  0  0  4           0  0  0
    0.0000    0.0000   -0.0000 C   0  0  0  0  0  4           0  0  0
    1.7500    3.0081   -1.4516 C   0  0  0  0  0  4           0  0  0
    3.8235    0.8536    0.0084 C   0  0  0  0  0  4           0  0  0
   -0.1947    6.4057   -1.5582 C   0  0  0  0  0  4           0  0  0
   -1.1930    4.0864   -1.4502 C   0  0  0  0  0  4           0  0  0
  1 14  2  0     0  0
  2 15  2  0     0  0
  3 16  1  0     0  0
  4 17  1  0     0  0
  5  6  1  0     0  0
  5  7  1  0     0  0
  6  8  1  0     0  0
  6  9  2  0     0  0
  7 10  2  0     0  0
  8 10  1  0     0  0
  8 11  2  0     0  0
  9 12  1  0     0  0
  9 19  1  0     0  0
 10 18  1  0     0  0
 11 13  1  0     0  0
 12 13  2  0     0  0
 14 17  1  0     0  0
 14 18  1  0     0  0
 15 16  1  0     0  0
 15 22  1  0     0  0
 16 18  2  0     0  0
 17 22  2  0     0  0
 19 23  2  0     0  0
 20 24  2  0     0  0
 20 26  1  0     0  0
 20 29  1  0     0  0
 21 25  2  0     0  0
 21 30  1  0     0  0
 21 31  1  0     0  0
 23 27  1  0     0  0
 24 27  1  0     0  0
 25 28  1  0     0  0
 26 28  1  0     0  0
M  END
> <standard_type>
IC50

> <# Confs.>
25

> <canonical_smiles>
O=C1C=C(O)C(C(C2=CNC3=C(/C=C/C/C=C(C)/CC/C=C(C)/C)C=CC=C32)=C1O)=O

> <standard_relation>
=

> <predicted_activity_value>
4.481486060122113

> <actual_activity_value>
4.022276394711152

> <Compound>
18

> <publication_ID>
nan

> <standard_units>
nM

> hash
10709288634941402673

$$$$
18_
XXILIB    08252103493D 0   0.00000     0.00000

 31 33  0     1  0            999 V2000
   -5.0172    5.5982    5.3027 O   0  0  0  0  0  2           0  0  0
   -2.7426    4.8905   10.0577 O   0  0  0  0  0  2           0  0  0
   -1.6464    3.5107    7.9482 O   0  0  0  0  0  2           0  0  0
   -6.1877    6.7903    7.4439 O   0  0  0  0  0  2           0  0  0
   -1.9785    3.5533    3.3243 N   0  0  0  0  0  3           0  0  0
   -2.1624    2.2743    3.8078 C   0  0  0  0  0  4           0  0  0
   -2.3650    4.4822    4.2489 C   0  0  0  0  0  4           0  0  0
   -2.6936    2.4110    5.0997 C   0  0  0  0  0  4           0  0  0
   -1.9116    1.0191    3.2121 C   0  0  0  0  0  4           0  0  0
   -2.8187    3.8168    5.3676 C   0  0  0  0  0  4           0  0  0
   -2.9818    1.2352    5.8286 C   0  0  0  0  0  4           0  0  0
   -2.2079   -0.1219    3.9764 C   0  0  0  0  0  4           0  0  0
   -2.7347   -0.0161    5.2595 C   0  0  0  0  0  4           0  0  0
   -4.5044    5.3741    6.3971 C   0  0  0  0  0  4           0  0  0
   -3.2781    5.0145    8.9606 C   0  0  0  0  0  4           0  0  0
   -2.7457    4.3297    7.7563 C   0  0  0  0  0  4           0  0  0
   -5.0601    6.0132    7.6132 C   0  0  0  0  0  4           0  0  0
   -3.3111    4.4746    6.5428 C   0  0  0  0  0  4           0  0  0
   -1.3487    0.9718    1.8698 C   0  0  0  0  0  4           0  0  0
    2.3301    0.9193   -0.5307 C   0  0  0  0  0  4           0  0  0
    1.9078    5.7463   -1.1178 C   0  0  0  0  0  4           0  0  0
   -4.4826    5.8448    8.8043 C   0  0  0  0  0  4           0  0  0
   -0.5542    0.0000    1.3912 C   0  0  0  0  0  4           0  0  0
    1.4995    0.0000    0.0000 C   0  0  0  0  0  4           0  0  0
    1.2757    4.5594   -1.0433 C   0  0  0  0  0  4           0  0  0
    1.8927    2.1504   -1.2649 C   0  0  0  0  0  4           0  0  0
    0.0000    0.0000   -0.0000 C   0  0  0  0  0  4           0  0  0
    1.7132    3.3283   -0.3092 C   0  0  0  0  0  4           0  0  0
    3.8235    0.7434   -0.4195 C   0  0  0  0  0  4           0  0  0
    1.2895    6.8945   -1.8711 C   0  0  0  0  0  4           0  0  0
    3.2403    6.0589   -0.4987 C   0  0  0  0  0  4           0  0  0
  1 14  2  0     0  0
  2 15  2  0     0  0
  3 16  1  0     0  0
  4 17  1  0     0  0
  5  6  1  0     0  0
  5  7  1  0     0  0
  6  8  1  0     0  0
  6  9  2  0     0  0
  7 10  2  0     0  0
  8 10  1  0     0  0
  8 11  2  0     0  0
  9 12  1  0     0  0
  9 19  1  0     0  0
 10 18  1  0     0  0
 11 13  1  0     0  0
 12 13  2  0     0  0
 14 17  1  0     0  0
 14 18  1  0     0  0
 15 16  1  0     0  0
 15 22  1  0     0  0
 16 18  2  0     0  0
 17 22  2  0     0  0
 19 23  2  0     0  0
 20 24  2  0     0  0
 20 26  1  0     0  0
 20 29  1  0     0  0
 21 25  2  0     0  0
 21 30  1  0     0  0
 21 31  1  0     0  0
 23 27  1  0     0  0
 24 27  1  0     0  0
 25 28  1  0     0  0
 26 28  1  0     0  0
M  END
> <standard_type>
IC50

> <# Confs.>
25

> <canonical_smiles>
O=C1C=C(O)C(C(C2=CNC3=C(/C=C/C/C=C(C)/CC/C=C(C)/C)C=CC=C32)=C1O)=O

> <standard_relation>
=

> <predicted_activity_value>
4.481486060122113

> <actual_activity_value>
4.022276394711152

> <Compound>
18

> <publication_ID>
nan

> <standard_units>
nM

> hash
10709288634941402673

$$$$
18_
XXILIB    08252103493D 0   0.00000     0.00000

 31 33  0     1  0            999 V2000
   -7.6938    1.5826    4.3221 O   0  0  0  0  0  2           0  0  0
   -6.5302    4.6927    8.4765 O   0  0  0  0  0  2           0  0  0
   -4.4739    4.1325    6.7407 O   0  0  0  0  0  2           0  0  0
   -9.6466    2.0012    6.1625 O   0  0  0  0  0  2           0  0  0
   -4.0056    2.2738    2.5194 N   0  0  0  0  0  3           0  0  0
   -3.1548    1.6570    3.4135 C   0  0  0  0  0  4           0  0  0
   -5.1137    2.7560    3.1572 C   0  0  0  0  0  4           0  0  0
   -3.7638    1.7566    4.6740 C   0  0  0  0  0  4           0  0  0
   -1.9116    1.0191    3.2121 C   0  0  0  0  0  4           0  0  0
   -5.0069    2.4549    4.4981 C   0  0  0  0  0  4           0  0  0
   -3.0928    1.1947    5.7835 C   0  0  0  0  0  4           0  0  0
   -1.2785    0.4807    4.3449 C   0  0  0  0  0  4           0  0  0
   -1.8587    0.5651    5.6063 C   0  0  0  0  0  4           0  0  0
   -7.3829    2.2594    5.3000 C   0  0  0  0  0  4           0  0  0
   -6.7732    3.9470    7.5327 C   0  0  0  0  0  4           0  0  0
   -5.7357    3.6047    6.5281 C   0  0  0  0  0  4           0  0  0
   -8.3987    2.5645    6.3350 C   0  0  0  0  0  4           0  0  0
   -5.9953    2.8051    5.4762 C   0  0  0  0  0  4           0  0  0
   -1.3487    0.9718    1.8698 C   0  0  0  0  0  4           0  0  0
    2.3301   -0.9193   -0.5307 C   0  0  0  0  0  4           0  0  0
    0.0547   -5.0090   -1.1680 C   0  0  0  0  0  4           0  0  0
   -8.1100    3.3540    7.3711 C   0  0  0  0  0  4           0  0  0
   -0.5542    0.0000    1.3912 C   0  0  0  0  0  4           0  0  0
    1.4995   -0.0000   -0.0000 C   0  0  0  0  0  4           0  0  0
    1.3126   -4.5823   -0.9461 C   0  0  0  0  0  4           0  0  0
    1.8927   -2.1706   -1.2299 C   0  0  0  0  0  4           0  0  0
    0.0000    0.0000   -0.0000 C   0  0  0  0  0  4           0  0  0
    1.7500   -3.3309   -0.2469 C   0  0  0  0  0  4           0  0  0
    3.8235   -0.7350   -0.4341 C   0  0  0  0  0  4           0  0  0
   -0.1947   -6.3266   -1.8534 C   0  0  0  0  0  4           0  0  0
   -1.1930   -4.2640   -0.7873 C   0  0  0  0  0  4           0  0  0
  1 14  2  0     0  0
  2 15  2  0     0  0
  3 16  1  0     0  0
  4 17  1  0     0  0
  5  6  1  0     0  0
  5  7  1  0     0  0
  6  8  1  0     0  0
  6  9  2  0     0  0
  7 10  2  0     0  0
  8 10  1  0     0  0
  8 11  2  0     0  0
  9 12  1  0     0  0
  9 19  1  0     0  0
 10 18  1  0     0  0
 11 13  1  0     0  0
 12 13  2  0     0  0
 14 17  1  0     0  0
 14 18  1  0     0  0
 15 16  1  0     0  0
 15 22  1  0     0  0
 16 18  2  0     0  0
 17 22  2  0     0  0
 19 23  2  0     0  0
 20 24  2  0     0  0
 20 26  1  0     0  0
 20 29  1  0     0  0
 21 25  2  0     0  0
 21 30  1  0     0  0
 21 31  1  0     0  0
 23 27  1  0     0  0
 24 27  1  0     0  0
 25 28  1  0     0  0
 26 28  1  0     0  0
M  END
> <standard_type>
IC50

> <# Confs.>
25

> <canonical_smiles>
O=C1C=C(O)C(C(C2=CNC3=C(/C=C/C/C=C(C)/CC/C=C(C)/C)C=CC=C32)=C1O)=O

> <standard_relation>
=

> <predicted_activity_value>
4.481486060122113

> <actual_activity_value>
4.022276394711152

> <Compound>
18

> <publication_ID>
nan

> <standard_units>
nM

> hash
10709288634941402673

$$$$
18_
XXILIB    08252103493D 0   0.00000     0.00000

 31 33  0     1  0            999 V2000
   -5.7118    5.1397    5.0511 O   0  0  0  0  0  2           0  0  0
   -8.2212    1.4402    7.9325 O   0  0  0  0  0  2           0  0  0
   -6.3821    0.5386    6.0994 O   0  0  0  0  0  2           0  0  0
   -7.6726    5.9760    6.7338 O   0  0  0  0  0  2           0  0  0
   -4.0056    2.2738    2.5194 N   0  0  0  0  0  3           0  0  0
   -3.1548    1.6570    3.4135 C   0  0  0  0  0  4           0  0  0
   -5.1137    2.7560    3.1572 C   0  0  0  0  0  4           0  0  0
   -3.7638    1.7566    4.6740 C   0  0  0  0  0  4           0  0  0
   -1.9116    1.0191    3.2121 C   0  0  0  0  0  4           0  0  0
   -5.0069    2.4549    4.4981 C   0  0  0  0  0  4           0  0  0
   -3.0928    1.1947    5.7835 C   0  0  0  0  0  4           0  0  0
   -1.2785    0.4807    4.3449 C   0  0  0  0  0  4           0  0  0
   -1.8587    0.5651    5.6063 C   0  0  0  0  0  4           0  0  0
   -6.3133    4.2604    5.6642 C   0  0  0  0  0  4           0  0  0
   -7.6597    2.2788    7.2342 C   0  0  0  0  0  4           0  0  0
   -6.6340    1.8930    6.2333 C   0  0  0  0  0  4           0  0  0
   -7.3749    4.6326    6.6289 C   0  0  0  0  0  4           0  0  0
   -5.9953    2.8051    5.4762 C   0  0  0  0  0  4           0  0  0
   -1.3487    0.9718    1.8698 C   0  0  0  0  0  4           0  0  0
    2.3301    0.9193   -0.5307 C   0  0  0  0  0  4           0  0  0
    0.1471    5.2720   -0.8640 C   0  0  0  0  0  4           0  0  0
   -7.9964    3.7055    7.3600 C   0  0  0  0  0  4           0  0  0
   -0.5542    0.0000    1.3912 C   0  0  0  0  0  4           0  0  0
    1.4995    0.0000    0.0000 C   0  0  0  0  0  4           0  0  0
    1.2757    4.5594   -1.0433 C   0  0  0  0  0  4           0  0  0
    1.8927    2.1504   -1.2649 C   0  0  0  0  0  4           0  0  0
    0.0000    0.0000   -0.0000 C   0  0  0  0  0  4           0  0  0
    1.7132    3.3283   -0.3092 C   0  0  0  0  0  4           0  0  0
    3.8235    0.7434   -0.4195 C   0  0  0  0  0  4           0  0  0
   -0.1484    6.4655   -1.7337 C   0  0  0  0  0  4           0  0  0
   -0.9016    4.9880    0.1734 C   0  0  0  0  0  4           0  0  0
  1 14  2  0     0  0
  2 15  2  0     0  0
  3 16  1  0     0  0
  4 17  1  0     0  0
  5  6  1  0     0  0
  5  7  1  0     0  0
  6  8  1  0     0  0
  6  9  2  0     0  0
  7 10  2  0     0  0
  8 10  1  0     0  0
  8 11  2  0     0  0
  9 12  1  0     0  0
  9 19  1  0     0  0
 10 18  1  0     0  0
 11 13  1  0     0  0
 12 13  2  0     0  0
 14 17  1  0     0  0
 14 18  1  0     0  0
 15 16  1  0     0  0
 15 22  1  0     0  0
 16 18  2  0     0  0
 17 22  2  0     0  0
 19 23  2  0     0  0
 20 24  2  0     0  0
 20 26  1  0     0  0
 20 29  1  0     0  0
 21 25  2  0     0  0
 21 30  1  0     0  0
 21 31  1  0     0  0
 23 27  1  0     0  0
 24 27  1  0     0  0
 25 28  1  0     0  0
 26 28  1  0     0  0
M  END
> <standard_type>
IC50

> <# Confs.>
25

> <canonical_smiles>
O=C1C=C(O)C(C(C2=CNC3=C(/C=C/C/C=C(C)/CC/C=C(C)/C)C=CC=C32)=C1O)=O

> <standard_relation>
=

> <predicted_activity_value>
4.481486060122113

> <actual_activity_value>
4.022276394711152

> <Compound>
18

> <publication_ID>
nan

> <standard_units>
nM

> hash
10709288634941402673

$$$$
18_
XXILIB    08252103493D 0   0.00000     0.00000

 31 33  0     1  0            999 V2000
   -1.2116    5.5509    6.9236 O   0  0  0  0  0  2           0  0  0
   -6.1779    4.7968    8.6708 O   0  0  0  0  0  2           0  0  0
   -5.4569    3.4521    6.3845 O   0  0  0  0  0  2           0  0  0
   -2.0233    7.0091    9.0662 O   0  0  0  0  0  2           0  0  0
   -1.9785    3.5533    3.3243 N   0  0  0  0  0  3           0  0  0
   -2.1624    2.2743    3.8078 C   0  0  0  0  0  4           0  0  0
   -2.3650    4.4822    4.2489 C   0  0  0  0  0  4           0  0  0
   -2.6936    2.4110    5.0997 C   0  0  0  0  0  4           0  0  0
   -1.9116    1.0191    3.2121 C   0  0  0  0  0  4           0  0  0
   -2.8187    3.8168    5.3676 C   0  0  0  0  0  4           0  0  0
   -2.9818    1.2352    5.8286 C   0  0  0  0  0  4           0  0  0
   -2.2079   -0.1219    3.9764 C   0  0  0  0  0  4           0  0  0
   -2.7347   -0.0161    5.2595 C   0  0  0  0  0  4           0  0  0
   -2.3802    5.3988    7.2733 C   0  0  0  0  0  4           0  0  0
   -5.0471    4.9881    8.2341 C   0  0  0  0  0  4           0  0  0
   -4.5567    4.2898    7.0198 C   0  0  0  0  0  4           0  0  0
   -2.8945    6.1307    8.4548 C   0  0  0  0  0  4           0  0  0
   -3.3111    4.4746    6.5428 C   0  0  0  0  0  4           0  0  0
   -1.3487    0.9718    1.8698 C   0  0  0  0  0  4           0  0  0
    2.3301    1.0615    0.0000 C   0  0  0  0  0  4           0  0  0
    0.0547    4.9219   -1.4930 C   0  0  0  0  0  4           0  0  0
   -4.1367    5.9329    8.8999 C   0  0  0  0  0  4           0  0  0
   -0.5542    0.0000    1.3912 C   0  0  0  0  0  4           0  0  0
    1.4995    0.0000    0.0000 C   0  0  0  0  0  4           0  0  0
    1.3126    4.4414   -1.4718 C   0  0  0  0  0  4           0  0  0
    1.8927    2.4948   -0.0202 C   0  0  0  0  0  4           0  0  0
    0.0000    0.0000   -0.0000 C   0  0  0  0  0  4           0  0  0
    1.7500    3.0081   -1.4516 C   0  0  0  0  0  4           0  0  0
    3.8235    0.8536    0.0084 C   0  0  0  0  0  4           0  0  0
   -0.1947    6.4057   -1.5582 C   0  0  0  0  0  4           0  0  0
   -1.1930    4.0864   -1.4502 C   0  0  0  0  0  4           0  0  0
  1 14  2  0     0  0
  2 15  2  0     0  0
  3 16  1  0     0  0
  4 17  1  0     0  0
  5  6  1  0     0  0
  5  7  1  0     0  0
  6  8  1  0     0  0
  6  9  2  0     0  0
  7 10  2  0     0  0
  8 10  1  0     0  0
  8 11  2  0     0  0
  9 12  1  0     0  0
  9 19  1  0     0  0
 10 18  1  0     0  0
 11 13  1  0     0  0
 12 13  2  0     0  0
 14 17  1  0     0  0
 14 18  1  0     0  0
 15 16  1  0     0  0
 15 22  1  0     0  0
 16 18  2  0     0  0
 17 22  2  0     0  0
 19 23  2  0     0  0
 20 24  2  0     0  0
 20 26  1  0     0  0
 20 29  1  0     0  0
 21 25  2  0     0  0
 21 30  1  0     0  0
 21 31  1  0     0  0
 23 27  1  0     0  0
 24 27  1  0     0  0
 25 28  1  0     0  0
 26 28  1  0     0  0
M  END
> <standard_type>
IC50

> <# Confs.>
25

> <canonical_smiles>
O=C1C=C(O)C(C(C2=CNC3=C(/C=C/C/C=C(C)/CC/C=C(C)/C)C=CC=C32)=C1O)=O

> <standard_relation>
=

> <predicted_activity_value>
4.481486060122113

> <actual_activity_value>
4.022276394711152

> <Compound>
18

> <publication_ID>
nan

> <standard_units>
nM

> hash
10709288634941402673

$$$$
18_
XXILIB    08252103493D 0   0.00000     0.00000

 31 33  0     1  0            999 V2000
   -1.2116    5.5509    6.9236 O   0  0  0  0  0  2           0  0  0
   -6.1779    4.7968    8.6708 O   0  0  0  0  0  2           0  0  0
   -5.4569    3.4521    6.3845 O   0  0  0  0  0  2           0  0  0
   -2.0233    7.0091    9.0662 O   0  0  0  0  0  2           0  0  0
   -1.9785    3.5533    3.3243 N   0  0  0  0  0  3           0  0  0
   -2.1624    2.2743    3.8078 C   0  0  0  0  0  4           0  0  0
   -2.3650    4.4822    4.2489 C   0  0  0  0  0  4           0  0  0
   -2.6936    2.4110    5.0997 C   0  0  0  0  0  4           0  0  0
   -1.9116    1.0191    3.2121 C   0  0  0  0  0  4           0  0  0
   -2.8187    3.8168    5.3676 C   0  0  0  0  0  4           0  0  0
   -2.9818    1.2352    5.8286 C   0  0  0  0  0  4           0  0  0
   -2.2079   -0.1219    3.9764 C   0  0  0  0  0  4           0  0  0
   -2.7347   -0.0161    5.2595 C   0  0  0  0  0  4           0  0  0
   -2.3802    5.3988    7.2733 C   0  0  0  0  0  4           0  0  0
   -5.0471    4.9881    8.2341 C   0  0  0  0  0  4           0  0  0
   -4.5567    4.2898    7.0198 C   0  0  0  0  0  4           0  0  0
   -2.8945    6.1307    8.4548 C   0  0  0  0  0  4           0  0  0
   -3.3111    4.4746    6.5428 C   0  0  0  0  0  4           0  0  0
   -1.3487    0.9718    1.8698 C   0  0  0  0  0  4           0  0  0
    2.3301    0.9193   -0.5307 C   0  0  0  0  0  4           0  0  0
    1.9078    5.7463   -1.1178 C   0  0  0  0  0  4           0  0  0
   -4.1367    5.9329    8.8999 C   0  0  0  0  0  4           0  0  0
   -0.5542    0.0000    1.3912 C   0  0  0  0  0  4           0  0  0
    1.4995    0.0000    0.0000 C   0  0  0  0  0  4           0  0  0
    1.2757    4.5594   -1.0433 C   0  0  0  0  0  4           0  0  0
    1.8927    2.1504   -1.2649 C   0  0  0  0  0  4           0  0  0
    0.0000    0.0000   -0.0000 C   0  0  0  0  0  4           0  0  0
    1.7132    3.3283   -0.3092 C   0  0  0  0  0  4           0  0  0
    3.8235    0.7434   -0.4195 C   0  0  0  0  0  4           0  0  0
    1.2895    6.8945   -1.8711 C   0  0  0  0  0  4           0  0  0
    3.2403    6.0589   -0.4987 C   0  0  0  0  0  4           0  0  0
  1 14  2  0     0  0
  2 15  2  0     0  0
  3 16  1  0     0  0
  4 17  1  0     0  0
  5  6  1  0     0  0
  5  7  1  0     0  0
  6  8  1  0     0  0
  6  9  2  0     0  0
  7 10  2  0     0  0
  8 10  1  0     0  0
  8 11  2  0     0  0
  9 12  1  0     0  0
  9 19  1  0     0  0
 10 18  1  0     0  0
 11 13  1  0     0  0
 12 13  2  0     0  0
 14 17  1  0     0  0
 14 18  1  0     0  0
 15 16  1  0     0  0
 15 22  1  0     0  0
 16 18  2  0     0  0
 17 22  2  0     0  0
 19 23  2  0     0  0
 20 24  2  0     0  0
 20 26  1  0     0  0
 20 29  1  0     0  0
 21 25  2  0     0  0
 21 30  1  0     0  0
 21 31  1  0     0  0
 23 27  1  0     0  0
 24 27  1  0     0  0
 25 28  1  0     0  0
 26 28  1  0     0  0
M  END
> <standard_type>
IC50

> <# Confs.>
25

> <canonical_smiles>
O=C1C=C(O)C(C(C2=CNC3=C(/C=C/C/C=C(C)/CC/C=C(C)/C)C=CC=C32)=C1O)=O

> <standard_relation>
=

> <predicted_activity_value>
4.481486060122113

> <actual_activity_value>
4.022276394711152

> <Compound>
18

> <publication_ID>
nan

> <standard_units>
nM

> hash
10709288634941402673

$$$$
18_
XXILIB    08252103493D 0   0.00000     0.00000

 31 33  0     1  0            999 V2000
   -1.2116    5.5509    6.9236 O   0  0  0  0  0  2           0  0  0
   -6.1779    4.7968    8.6708 O   0  0  0  0  0  2           0  0  0
   -5.4569    3.4521    6.3845 O   0  0  0  0  0  2           0  0  0
   -2.0233    7.0091    9.0662 O   0  0  0  0  0  2           0  0  0
   -1.9785    3.5533    3.3243 N   0  0  0  0  0  3           0  0  0
   -2.1624    2.2743    3.8078 C   0  0  0  0  0  4           0  0  0
   -2.3650    4.4822    4.2489 C   0  0  0  0  0  4           0  0  0
   -2.6936    2.4110    5.0997 C   0  0  0  0  0  4           0  0  0
   -1.9116    1.0191    3.2121 C   0  0  0  0  0  4           0  0  0
   -2.8187    3.8168    5.3676 C   0  0  0  0  0  4           0  0  0
   -2.9818    1.2352    5.8286 C   0  0  0  0  0  4           0  0  0
   -2.2079   -0.1219    3.9764 C   0  0  0  0  0  4           0  0  0
   -2.7347   -0.0161    5.2595 C   0  0  0  0  0  4           0  0  0
   -2.3802    5.3988    7.2733 C   0  0  0  0  0  4           0  0  0
   -5.0471    4.9881    8.2341 C   0  0  0  0  0  4           0  0  0
   -4.5567    4.2898    7.0198 C   0  0  0  0  0  4           0  0  0
   -2.8945    6.1307    8.4548 C   0  0  0  0  0  4           0  0  0
   -3.3111    4.4746    6.5428 C   0  0  0  0  0  4           0  0  0
   -1.3487    0.9718    1.8698 C   0  0  0  0  0  4           0  0  0
    2.3301    1.0615    0.0000 C   0  0  0  0  0  4           0  0  0
    1.5307    5.4257    2.2905 C   0  0  0  0  0  4           0  0  0
   -4.1367    5.9329    8.8999 C   0  0  0  0  0  4           0  0  0
   -0.5542    0.0000    1.3912 C   0  0  0  0  0  4           0  0  0
    1.4995    0.0000    0.0000 C   0  0  0  0  0  4           0  0  0
    1.2757    4.4702    1.3762 C   0  0  0  0  0  4           0  0  0
    1.8927    2.4948   -0.0202 C   0  0  0  0  0  4           0  0  0
    0.0000    0.0000   -0.0000 C   0  0  0  0  0  4           0  0  0
    1.7132    3.0370    1.3964 C   0  0  0  0  0  4           0  0  0
    3.8235    0.8536    0.0084 C   0  0  0  0  0  4           0  0  0
    0.9651    6.8115    2.1244 C   0  0  0  0  0  4           0  0  0
    2.3708    5.2442    3.5225 C   0  0  0  0  0  4           0  0  0
  1 14  2  0     0  0
  2 15  2  0     0  0
  3 16  1  0     0  0
  4 17  1  0     0  0
  5  6  1  0     0  0
  5  7  1  0     0  0
  6  8  1  0     0  0
  6  9  2  0     0  0
  7 10  2  0     0  0
  8 10  1  0     0  0
  8 11  2  0     0  0
  9 12  1  0     0  0
  9 19  1  0     0  0
 10 18  1  0     0  0
 11 13  1  0     0  0
 12 13  2  0     0  0
 14 17  1  0     0  0
 14 18  1  0     0  0
 15 16  1  0     0  0
 15 22  1  0     0  0
 16 18  2  0     0  0
 17 22  2  0     0  0
 19 23  2  0     0  0
 20 24  2  0     0  0
 20 26  1  0     0  0
 20 29  1  0     0  0
 21 25  2  0     0  0
 21 30  1  0     0  0
 21 31  1  0     0  0
 23 27  1  0     0  0
 24 27  1  0     0  0
 25 28  1  0     0  0
 26 28  1  0     0  0
M  END
> <standard_type>
IC50

> <# Confs.>
25

> <canonical_smiles>
O=C1C=C(O)C(C(C2=CNC3=C(/C=C/C/C=C(C)/CC/C=C(C)/C)C=CC=C32)=C1O)=O

> <standard_relation>
=

> <predicted_activity_value>
4.481486060122113

> <actual_activity_value>
4.022276394711152

> <Compound>
18

> <publication_ID>
nan

> <standard_units>
nM

> hash
10709288634941402673

$$$$
18_
XXILIB    08252103493D 0   0.00000     0.00000

 31 33  0     1  0            999 V2000
   -5.0572   -5.5465    5.3118 O   0  0  0  0  0  2           0  0  0
   -2.8275   -4.7923   10.0810 O   0  0  0  0  0  2           0  0  0
   -1.6985   -3.4493    7.9650 O   0  0  0  0  0  2           0  0  0
   -6.0201   -7.0030    7.3920 O   0  0  0  0  0  2           0  0  0
   -1.9485   -3.5522    3.3388 N   0  0  0  0  0  3           0  0  0
   -2.1640   -2.2728    3.8081 C   0  0  0  0  0  4           0  0  0
   -2.3390   -4.4804    4.2624 C   0  0  0  0  0  4           0  0  0
   -2.7148   -2.4086    5.0919 C   0  0  0  0  0  4           0  0  0
   -1.9132   -1.0181    3.2115 C   0  0  0  0  0  4           0  0  0
   -2.8196   -3.8142    5.3694 C   0  0  0  0  0  4           0  0  0
   -3.0325   -1.2322    5.8075 C   0  0  0  0  0  4           0  0  0
   -2.2506    0.1235    3.9577 C   0  0  0  0  0  4           0  0  0
   -2.7981    0.0187    5.2321 C   0  0  0  0  0  4           0  0  0
   -4.4887   -5.3943    6.3910 C   0  0  0  0  0  4           0  0  0
   -3.3074   -4.9836    8.9679 C   0  0  0  0  0  4           0  0  0
   -2.7831   -4.2862    7.7672 C   0  0  0  0  0  4           0  0  0
   -4.9730   -6.1254    7.5857 C   0  0  0  0  0  4           0  0  0
   -3.3146   -4.4710    6.5440 C   0  0  0  0  0  4           0  0  0
   -1.3487   -0.9718    1.8698 C   0  0  0  0  0  4           0  0  0
    2.3301   -1.0615    0.0000 C   0  0  0  0  0  4           0  0  0
    1.5914   -5.3782    2.3983 C   0  0  0  0  0  4           0  0  0
   -4.4210   -5.9276    8.7842 C   0  0  0  0  0  4           0  0  0
   -0.5542    0.0000    1.3912 C   0  0  0  0  0  4           0  0  0
    1.4995   -0.0000   -0.0000 C   0  0  0  0  0  4           0  0  0
    1.3126   -4.4414    1.4718 C   0  0  0  0  0  4           0  0  0
    1.8927   -2.4948    0.0202 C   0  0  0  0  0  4           0  0  0
    0.0000    0.0000    0.0000 C   0  0  0  0  0  4           0  0  0
    1.7500   -3.0081    1.4516 C   0  0  0  0  0  4           0  0  0
    3.8235   -0.8536   -0.0084 C   0  0  0  0  0  4           0  0  0
    1.0992   -6.7912    2.2273 C   0  0  0  0  0  4           0  0  0
    2.3802   -5.1460    3.6555 C   0  0  0  0  0  4           0  0  0
  1 14  2  0     0  0
  2 15  2  0     0  0
  3 16  1  0     0  0
  4 17  1  0     0  0
  5  6  1  0     0  0
  5  7  1  0     0  0
  6  8  1  0     0  0
  6  9  2  0     0  0
  7 10  2  0     0  0
  8 10  1  0     0  0
  8 11  2  0     0  0
  9 12  1  0     0  0
  9 19  1  0     0  0
 10 18  1  0     0  0
 11 13  1  0     0  0
 12 13  2  0     0  0
 14 17  1  0     0  0
 14 18  1  0     0  0
 15 16  1  0     0  0
 15 22  1  0     0  0
 16 18  2  0     0  0
 17 22  2  0     0  0
 19 23  2  0     0  0
 20 24  2  0     0  0
 20 26  1  0     0  0
 20 29  1  0     0  0
 21 25  2  0     0  0
 21 30  1  0     0  0
 21 31  1  0     0  0
 23 27  1  0     0  0
 24 27  1  0     0  0
 25 28  1  0     0  0
 26 28  1  0     0  0
M  END
> <standard_type>
IC50

> <# Confs.>
25

> <canonical_smiles>
O=C1C=C(O)C(C(C2=CNC3=C(/C=C/C/C=C(C)/CC/C=C(C)/C)C=CC=C32)=C1O)=O

> <standard_relation>
=

> <predicted_activity_value>
4.481486060122113

> <actual_activity_value>
4.022276394711152

> <Compound>
18

> <publication_ID>
nan

> <standard_units>
nM

> hash
10709288634941402673

$$$$
18_
XXILIB    08252103493D 0   0.00000     0.00000

 31 33  0     1  0            999 V2000
   -5.0572   -5.5465    5.3118 O   0  0  0  0  0  2           0  0  0
   -2.8275   -4.7923   10.0810 O   0  0  0  0  0  2           0  0  0
   -1.6985   -3.4493    7.9650 O   0  0  0  0  0  2           0  0  0
   -6.0201   -7.0030    7.3920 O   0  0  0  0  0  2           0  0  0
   -1.9485   -3.5522    3.3388 N   0  0  0  0  0  3           0  0  0
   -2.1640   -2.2728    3.8081 C   0  0  0  0  0  4           0  0  0
   -2.3390   -4.4804    4.2624 C   0  0  0  0  0  4           0  0  0
   -2.7148   -2.4086    5.0919 C   0  0  0  0  0  4           0  0  0
   -1.9132   -1.0181    3.2115 C   0  0  0  0  0  4           0  0  0
   -2.8196   -3.8142    5.3694 C   0  0  0  0  0  4           0  0  0
   -3.0325   -1.2322    5.8075 C   0  0  0  0  0  4           0  0  0
   -2.2506    0.1235    3.9577 C   0  0  0  0  0  4           0  0  0
   -2.7981    0.0187    5.2321 C   0  0  0  0  0  4           0  0  0
   -4.4887   -5.3943    6.3910 C   0  0  0  0  0  4           0  0  0
   -3.3074   -4.9836    8.9679 C   0  0  0  0  0  4           0  0  0
   -2.7831   -4.2862    7.7672 C   0  0  0  0  0  4           0  0  0
   -4.9730   -6.1254    7.5857 C   0  0  0  0  0  4           0  0  0
   -3.3146   -4.4710    6.5440 C   0  0  0  0  0  4           0  0  0
   -1.3487   -0.9718    1.8698 C   0  0  0  0  0  4           0  0  0
    2.3301    0.9193   -0.5307 C   0  0  0  0  0  4           0  0  0
    0.0547    3.5160   -3.7539 C   0  0  0  0  0  4           0  0  0
   -4.4210   -5.9276    8.7842 C   0  0  0  0  0  4           0  0  0
   -0.5542    0.0000    1.3912 C   0  0  0  0  0  4           0  0  0
    1.4995    0.0000   -0.0000 C   0  0  0  0  0  4           0  0  0
    1.3126    3.1105   -3.4953 C   0  0  0  0  0  4           0  0  0
    1.8927    2.1504   -1.2649 C   0  0  0  0  0  4           0  0  0
    0.0000    0.0000    0.0000 C   0  0  0  0  0  4           0  0  0
    1.7500    1.8793   -2.7612 C   0  0  0  0  0  4           0  0  0
    3.8235    0.7434   -0.4195 C   0  0  0  0  0  4           0  0  0
   -0.1947    4.7684   -4.5522 C   0  0  0  0  0  4           0  0  0
   -1.1930    2.8138   -3.2991 C   0  0  0  0  0  4           0  0  0
  1 14  2  0     0  0
  2 15  2  0     0  0
  3 16  1  0     0  0
  4 17  1  0     0  0
  5  6  1  0     0  0
  5  7  1  0     0  0
  6  8  1  0     0  0
  6  9  2  0     0  0
  7 10  2  0     0  0
  8 10  1  0     0  0
  8 11  2  0     0  0
  9 12  1  0     0  0
  9 19  1  0     0  0
 10 18  1  0     0  0
 11 13  1  0     0  0
 12 13  2  0     0  0
 14 17  1  0     0  0
 14 18  1  0     0  0
 15 16  1  0     0  0
 15 22  1  0     0  0
 16 18  2  0     0  0
 17 22  2  0     0  0
 19 23  2  0     0  0
 20 24  2  0     0  0
 20 26  1  0     0  0
 20 29  1  0     0  0
 21 25  2  0     0  0
 21 30  1  0     0  0
 21 31  1  0     0  0
 23 27  1  0     0  0
 24 27  1  0     0  0
 25 28  1  0     0  0
 26 28  1  0     0  0
M  END
> <standard_type>
IC50

> <# Confs.>
25

> <canonical_smiles>
O=C1C=C(O)C(C(C2=CNC3=C(/C=C/C/C=C(C)/CC/C=C(C)/C)C=CC=C32)=C1O)=O

> <standard_relation>
=

> <predicted_activity_value>
4.481486060122113

> <actual_activity_value>
4.022276394711152

> <Compound>
18

> <publication_ID>
nan

> <standard_units>
nM

> hash
10709288634941402673

$$$$
18_
XXILIB    08252103493D 0   0.00000     0.00000

 31 33  0     1  0            999 V2000
   -1.2356   -5.5962    6.8946 O   0  0  0  0  0  2           0  0  0
   -6.2228   -4.8837    8.5989 O   0  0  0  0  0  2           0  0  0
   -5.4828   -3.5055    6.3388 O   0  0  0  0  0  2           0  0  0
   -1.9461   -6.7868    9.2298 O   0  0  0  0  0  2           0  0  0
   -1.9485   -3.5522    3.3388 N   0  0  0  0  0  3           0  0  0
   -2.1640   -2.2728    3.8081 C   0  0  0  0  0  4           0  0  0
   -2.3390   -4.4804    4.2624 C   0  0  0  0  0  4           0  0  0
   -2.7148   -2.4086    5.0919 C   0  0  0  0  0  4           0  0  0
   -1.9132   -1.0181    3.2115 C   0  0  0  0  0  4           0  0  0
   -2.8196   -3.8142    5.3694 C   0  0  0  0  0  4           0  0  0
   -3.0325   -1.2322    5.8075 C   0  0  0  0  0  4           0  0  0
   -2.2506    0.1235    3.9577 C   0  0  0  0  0  4           0  0  0
   -2.7981    0.0187    5.2321 C   0  0  0  0  0  4           0  0  0
   -2.3759   -5.3710    7.2944 C   0  0  0  0  0  4           0  0  0
   -5.0646   -5.0089    8.2133 C   0  0  0  0  0  4           0  0  0
   -4.5768   -4.3249    6.9897 C   0  0  0  0  0  4           0  0  0
   -2.8558   -6.0092    8.5429 C   0  0  0  0  0  4           0  0  0
   -3.3146   -4.4710    6.5440 C   0  0  0  0  0  4           0  0  0
   -1.3487   -0.9718    1.8698 C   0  0  0  0  0  4           0  0  0
    2.3301   -1.0615    0.0000 C   0  0  0  0  0  4           0  0  0
    1.5914   -5.3782    2.3983 C   0  0  0  0  0  4           0  0  0
   -4.1104   -5.8396    8.9643 C   0  0  0  0  0  4           0  0  0
   -0.5542    0.0000    1.3912 C   0  0  0  0  0  4           0  0  0
    1.4995   -0.0000   -0.0000 C   0  0  0  0  0  4           0  0  0
    1.3126   -4.4414    1.4718 C   0  0  0  0  0  4           0  0  0
    1.8927   -2.4948    0.0202 C   0  0  0  0  0  4           0  0  0
    0.0000    0.0000    0.0000 C   0  0  0  0  0  4           0  0  0
    1.7500   -3.0081    1.4516 C   0  0  0  0  0  4           0  0  0
    3.8235   -0.8536   -0.0084 C   0  0  0  0  0  4           0  0  0
    1.0992   -6.7912    2.2273 C   0  0  0  0  0  4           0  0  0
    2.3802   -5.1460    3.6555 C   0  0  0  0  0  4           0  0  0
  1 14  2  0     0  0
  2 15  2  0     0  0
  3 16  1  0     0  0
  4 17  1  0     0  0
  5  6  1  0     0  0
  5  7  1  0     0  0
  6  8  1  0     0  0
  6  9  2  0     0  0
  7 10  2  0     0  0
  8 10  1  0     0  0
  8 11  2  0     0  0
  9 12  1  0     0  0
  9 19  1  0     0  0
 10 18  1  0     0  0
 11 13  1  0     0  0
 12 13  2  0     0  0
 14 17  1  0     0  0
 14 18  1  0     0  0
 15 16  1  0     0  0
 15 22  1  0     0  0
 16 18  2  0     0  0
 17 22  2  0     0  0
 19 23  2  0     0  0
 20 24  2  0     0  0
 20 26  1  0     0  0
 20 29  1  0     0  0
 21 25  2  0     0  0
 21 30  1  0     0  0
 21 31  1  0     0  0
 23 27  1  0     0  0
 24 27  1  0     0  0
 25 28  1  0     0  0
 26 28  1  0     0  0
M  END
> <standard_type>
IC50

> <# Confs.>
25

> <canonical_smiles>
O=C1C=C(O)C(C(C2=CNC3=C(/C=C/C/C=C(C)/CC/C=C(C)/C)C=CC=C32)=C1O)=O

> <standard_relation>
=

> <predicted_activity_value>
4.481486060122113

> <actual_activity_value>
4.022276394711152

> <Compound>
18

> <publication_ID>
nan

> <standard_units>
nM

> hash
10709288634941402673

$$$$
18_
XXILIB    08252103493D 0   0.00000     0.00000

 31 33  0     1  0            999 V2000
   -5.0172    5.5982    5.3027 O   0  0  0  0  0  2           0  0  0
   -2.7426    4.8905   10.0577 O   0  0  0  0  0  2           0  0  0
   -1.6464    3.5107    7.9482 O   0  0  0  0  0  2           0  0  0
   -6.1877    6.7903    7.4439 O   0  0  0  0  0  2           0  0  0
   -1.9785    3.5533    3.3243 N   0  0  0  0  0  3           0  0  0
   -2.1624    2.2743    3.8078 C   0  0  0  0  0  4           0  0  0
   -2.3650    4.4822    4.2489 C   0  0  0  0  0  4           0  0  0
   -2.6936    2.4110    5.0997 C   0  0  0  0  0  4           0  0  0
   -1.9116    1.0191    3.2121 C   0  0  0  0  0  4           0  0  0
   -2.8187    3.8168    5.3676 C   0  0  0  0  0  4           0  0  0
   -2.9818    1.2352    5.8286 C   0  0  0  0  0  4           0  0  0
   -2.2079   -0.1219    3.9764 C   0  0  0  0  0  4           0  0  0
   -2.7347   -0.0161    5.2595 C   0  0  0  0  0  4           0  0  0
   -4.5044    5.3741    6.3971 C   0  0  0  0  0  4           0  0  0
   -3.2781    5.0145    8.9606 C   0  0  0  0  0  4           0  0  0
   -2.7457    4.3297    7.7563 C   0  0  0  0  0  4           0  0  0
   -5.0601    6.0132    7.6132 C   0  0  0  0  0  4           0  0  0
   -3.3111    4.4746    6.5428 C   0  0  0  0  0  4           0  0  0
   -1.3487    0.9718    1.8698 C   0  0  0  0  0  4           0  0  0
    2.3301   -0.9193   -0.5307 C   0  0  0  0  0  4           0  0  0
    0.0547   -5.0090   -1.1680 C   0  0  0  0  0  4           0  0  0
   -4.4826    5.8448    8.8043 C   0  0  0  0  0  4           0  0  0
   -0.5542    0.0000    1.3912 C   0  0  0  0  0  4           0  0  0
    1.4995   -0.0000   -0.0000 C   0  0  0  0  0  4           0  0  0
    1.3126   -4.5823   -0.9461 C   0  0  0  0  0  4           0  0  0
    1.8927   -2.1706   -1.2299 C   0  0  0  0  0  4           0  0  0
    0.0000    0.0000   -0.0000 C   0  0  0  0  0  4           0  0  0
    1.7500   -3.3309   -0.2469 C   0  0  0  0  0  4           0  0  0
    3.8235   -0.7350   -0.4341 C   0  0  0  0  0  4           0  0  0
   -0.1947   -6.3266   -1.8534 C   0  0  0  0  0  4           0  0  0
   -1.1930   -4.2640   -0.7873 C   0  0  0  0  0  4           0  0  0
  1 14  2  0     0  0
  2 15  2  0     0  0
  3 16  1  0     0  0
  4 17  1  0     0  0
  5  6  1  0     0  0
  5  7  1  0     0  0
  6  8  1  0     0  0
  6  9  2  0     0  0
  7 10  2  0     0  0
  8 10  1  0     0  0
  8 11  2  0     0  0
  9 12  1  0     0  0
  9 19  1  0     0  0
 10 18  1  0     0  0
 11 13  1  0     0  0
 12 13  2  0     0  0
 14 17  1  0     0  0
 14 18  1  0     0  0
 15 16  1  0     0  0
 15 22  1  0     0  0
 16 18  2  0     0  0
 17 22  2  0     0  0
 19 23  2  0     0  0
 20 24  2  0     0  0
 20 26  1  0     0  0
 20 29  1  0     0  0
 21 25  2  0     0  0
 21 30  1  0     0  0
 21 31  1  0     0  0
 23 27  1  0     0  0
 24 27  1  0     0  0
 25 28  1  0     0  0
 26 28  1  0     0  0
M  END
> <standard_type>
IC50

> <# Confs.>
25

> <canonical_smiles>
O=C1C=C(O)C(C(C2=CNC3=C(/C=C/C/C=C(C)/CC/C=C(C)/C)C=CC=C32)=C1O)=O

> <standard_relation>
=

> <predicted_activity_value>
4.481486060122113

> <actual_activity_value>
4.022276394711152

> <Compound>
18

> <publication_ID>
nan

> <standard_units>
nM

> hash
10709288634941402673

$$$$
18_
XXILIB    08252103493D 0   0.00000     0.00000

 31 33  0     1  0            999 V2000
   -5.0172    5.5982    5.3027 O   0  0  0  0  0  2           0  0  0
   -2.7426    4.8905   10.0577 O   0  0  0  0  0  2           0  0  0
   -1.6464    3.5107    7.9482 O   0  0  0  0  0  2           0  0  0
   -6.1877    6.7903    7.4439 O   0  0  0  0  0  2           0  0  0
   -1.9785    3.5533    3.3243 N   0  0  0  0  0  3           0  0  0
   -2.1624    2.2743    3.8078 C   0  0  0  0  0  4           0  0  0
   -2.3650    4.4822    4.2489 C   0  0  0  0  0  4           0  0  0
   -2.6936    2.4110    5.0997 C   0  0  0  0  0  4           0  0  0
   -1.9116    1.0191    3.2121 C   0  0  0  0  0  4           0  0  0
   -2.8187    3.8168    5.3676 C   0  0  0  0  0  4           0  0  0
   -2.9818    1.2352    5.8286 C   0  0  0  0  0  4           0  0  0
   -2.2079   -0.1219    3.9764 C   0  0  0  0  0  4           0  0  0
   -2.7347   -0.0161    5.2595 C   0  0  0  0  0  4           0  0  0
   -4.5044    5.3741    6.3971 C   0  0  0  0  0  4           0  0  0
   -3.2781    5.0145    8.9606 C   0  0  0  0  0  4           0  0  0
   -2.7457    4.3297    7.7563 C   0  0  0  0  0  4           0  0  0
   -5.0601    6.0132    7.6132 C   0  0  0  0  0  4           0  0  0
   -3.3111    4.4746    6.5428 C   0  0  0  0  0  4           0  0  0
   -1.3487    0.9718    1.8698 C   0  0  0  0  0  4           0  0  0
    2.3301    1.0615    0.0000 C   0  0  0  0  0  4           0  0  0
    1.5307    5.4257    2.2905 C   0  0  0  0  0  4           0  0  0
   -4.4826    5.8448    8.8043 C   0  0  0  0  0  4           0  0  0
   -0.5542    0.0000    1.3912 C   0  0  0  0  0  4           0  0  0
    1.4995    0.0000    0.0000 C   0  0  0  0  0  4           0  0  0
    1.2757    4.4702    1.3762 C   0  0  0  0  0  4           0  0  0
    1.8927    2.4948   -0.0202 C   0  0  0  0  0  4           0  0  0
    0.0000    0.0000   -0.0000 C   0  0  0  0  0  4           0  0  0
    1.7132    3.0370    1.3964 C   0  0  0  0  0  4           0  0  0
    3.8235    0.8536    0.0084 C   0  0  0  0  0  4           0  0  0
    0.9651    6.8115    2.1244 C   0  0  0  0  0  4           0  0  0
    2.3708    5.2442    3.5225 C   0  0  0  0  0  4           0  0  0
  1 14  2  0     0  0
  2 15  2  0     0  0
  3 16  1  0     0  0
  4 17  1  0     0  0
  5  6  1  0     0  0
  5  7  1  0     0  0
  6  8  1  0     0  0
  6  9  2  0     0  0
  7 10  2  0     0  0
  8 10  1  0     0  0
  8 11  2  0     0  0
  9 12  1  0     0  0
  9 19  1  0     0  0
 10 18  1  0     0  0
 11 13  1  0     0  0
 12 13  2  0     0  0
 14 17  1  0     0  0
 14 18  1  0     0  0
 15 16  1  0     0  0
 15 22  1  0     0  0
 16 18  2  0     0  0
 17 22  2  0     0  0
 19 23  2  0     0  0
 20 24  2  0     0  0
 20 26  1  0     0  0
 20 29  1  0     0  0
 21 25  2  0     0  0
 21 30  1  0     0  0
 21 31  1  0     0  0
 23 27  1  0     0  0
 24 27  1  0     0  0
 25 28  1  0     0  0
 26 28  1  0     0  0
M  END
> <standard_type>
IC50

> <# Confs.>
25

> <canonical_smiles>
O=C1C=C(O)C(C(C2=CNC3=C(/C=C/C/C=C(C)/CC/C=C(C)/C)C=CC=C32)=C1O)=O

> <standard_relation>
=

> <predicted_activity_value>
4.481486060122113

> <actual_activity_value>
4.022276394711152

> <Compound>
18

> <publication_ID>
nan

> <standard_units>
nM

> hash
10709288634941402673

$$$$
18_
XXILIB    08252103493D 0   0.00000     0.00000

 31 33  0     1  0            999 V2000
   -5.7118    5.1397    5.0511 O   0  0  0  0  0  2           0  0  0
   -8.2212    1.4402    7.9325 O   0  0  0  0  0  2           0  0  0
   -6.3821    0.5386    6.0994 O   0  0  0  0  0  2           0  0  0
   -7.6726    5.9760    6.7338 O   0  0  0  0  0  2           0  0  0
   -4.0056    2.2738    2.5194 N   0  0  0  0  0  3           0  0  0
   -3.1548    1.6570    3.4135 C   0  0  0  0  0  4           0  0  0
   -5.1137    2.7560    3.1572 C   0  0  0  0  0  4           0  0  0
   -3.7638    1.7566    4.6740 C   0  0  0  0  0  4           0  0  0
   -1.9116    1.0191    3.2121 C   0  0  0  0  0  4           0  0  0
   -5.0069    2.4549    4.4981 C   0  0  0  0  0  4           0  0  0
   -3.0928    1.1947    5.7835 C   0  0  0  0  0  4           0  0  0
   -1.2785    0.4807    4.3449 C   0  0  0  0  0  4           0  0  0
   -1.8587    0.5651    5.6063 C   0  0  0  0  0  4           0  0  0
   -6.3133    4.2604    5.6642 C   0  0  0  0  0  4           0  0  0
   -7.6597    2.2788    7.2342 C   0  0  0  0  0  4           0  0  0
   -6.6340    1.8930    6.2333 C   0  0  0  0  0  4           0  0  0
   -7.3749    4.6326    6.6289 C   0  0  0  0  0  4           0  0  0
   -5.9953    2.8051    5.4762 C   0  0  0  0  0  4           0  0  0
   -1.3487    0.9718    1.8698 C   0  0  0  0  0  4           0  0  0
    2.3301    0.9193   -0.5307 C   0  0  0  0  0  4           0  0  0
    2.0509    5.5126   -1.5949 C   0  0  0  0  0  4           0  0  0
   -7.9964    3.7055    7.3600 C   0  0  0  0  0  4           0  0  0
   -0.5542    0.0000    1.3912 C   0  0  0  0  0  4           0  0  0
    1.4995    0.0000    0.0000 C   0  0  0  0  0  4           0  0  0
    1.2757    4.5594   -1.0433 C   0  0  0  0  0  4           0  0  0
    1.8927    2.1504   -1.2649 C   0  0  0  0  0  4           0  0  0
    0.0000    0.0000   -0.0000 C   0  0  0  0  0  4           0  0  0
    1.7132    3.3283   -0.3092 C   0  0  0  0  0  4           0  0  0
    3.8235    0.7434   -0.4195 C   0  0  0  0  0  4           0  0  0
    1.4288    6.7127   -2.2589 C   0  0  0  0  0  4           0  0  0
    3.5528    5.4995   -1.6231 C   0  0  0  0  0  4           0  0  0
  1 14  2  0     0  0
  2 15  2  0     0  0
  3 16  1  0     0  0
  4 17  1  0     0  0
  5  6  1  0     0  0
  5  7  1  0     0  0
  6  8  1  0     0  0
  6  9  2  0     0  0
  7 10  2  0     0  0
  8 10  1  0     0  0
  8 11  2  0     0  0
  9 12  1  0     0  0
  9 19  1  0     0  0
 10 18  1  0     0  0
 11 13  1  0     0  0
 12 13  2  0     0  0
 14 17  1  0     0  0
 14 18  1  0     0  0
 15 16  1  0     0  0
 15 22  1  0     0  0
 16 18  2  0     0  0
 17 22  2  0     0  0
 19 23  2  0     0  0
 20 24  2  0     0  0
 20 26  1  0     0  0
 20 29  1  0     0  0
 21 25  2  0     0  0
 21 30  1  0     0  0
 21 31  1  0     0  0
 23 27  1  0     0  0
 24 27  1  0     0  0
 25 28  1  0     0  0
 26 28  1  0     0  0
M  END
> <standard_type>
IC50

> <# Confs.>
25

> <canonical_smiles>
O=C1C=C(O)C(C(C2=CNC3=C(/C=C/C/C=C(C)/CC/C=C(C)/C)C=CC=C32)=C1O)=O

> <standard_relation>
=

> <predicted_activity_value>
4.481486060122113

> <actual_activity_value>
4.022276394711152

> <Compound>
18

> <publication_ID>
nan

> <standard_units>
nM

> hash
10709288634941402673

$$$$
18_
XXILIB    08252103493D 0   0.00000     0.00000

 31 33  0     1  0            999 V2000
   -1.2116    5.5509    6.9236 O   0  0  0  0  0  2           0  0  0
   -6.1779    4.7968    8.6708 O   0  0  0  0  0  2           0  0  0
   -5.4569    3.4521    6.3845 O   0  0  0  0  0  2           0  0  0
   -2.0233    7.0091    9.0662 O   0  0  0  0  0  2           0  0  0
   -1.9785    3.5533    3.3243 N   0  0  0  0  0  3           0  0  0
   -2.1624    2.2743    3.8078 C   0  0  0  0  0  4           0  0  0
   -2.3650    4.4822    4.2489 C   0  0  0  0  0  4           0  0  0
   -2.6936    2.4110    5.0997 C   0  0  0  0  0  4           0  0  0
   -1.9116    1.0191    3.2121 C   0  0  0  0  0  4           0  0  0
   -2.8187    3.8168    5.3676 C   0  0  0  0  0  4           0  0  0
   -2.9818    1.2352    5.8286 C   0  0  0  0  0  4           0  0  0
   -2.2079   -0.1219    3.9764 C   0  0  0  0  0  4           0  0  0
   -2.7347   -0.0161    5.2595 C   0  0  0  0  0  4           0  0  0
   -2.3802    5.3988    7.2733 C   0  0  0  0  0  4           0  0  0
   -5.0471    4.9881    8.2341 C   0  0  0  0  0  4           0  0  0
   -4.5567    4.2898    7.0198 C   0  0  0  0  0  4           0  0  0
   -2.8945    6.1307    8.4548 C   0  0  0  0  0  4           0  0  0
   -3.3111    4.4746    6.5428 C   0  0  0  0  0  4           0  0  0
   -1.3487    0.9718    1.8698 C   0  0  0  0  0  4           0  0  0
    2.3301   -0.9193   -0.5307 C   0  0  0  0  0  4           0  0  0
    0.0547   -5.0090   -1.1680 C   0  0  0  0  0  4           0  0  0
   -4.1367    5.9329    8.8999 C   0  0  0  0  0  4           0  0  0
   -0.5542    0.0000    1.3912 C   0  0  0  0  0  4           0  0  0
    1.4995   -0.0000   -0.0000 C   0  0  0  0  0  4           0  0  0
    1.3126   -4.5823   -0.9461 C   0  0  0  0  0  4           0  0  0
    1.8927   -2.1706   -1.2299 C   0  0  0  0  0  4           0  0  0
    0.0000    0.0000   -0.0000 C   0  0  0  0  0  4           0  0  0
    1.7500   -3.3309   -0.2469 C   0  0  0  0  0  4           0  0  0
    3.8235   -0.7350   -0.4341 C   0  0  0  0  0  4           0  0  0
   -0.1947   -6.3266   -1.8534 C   0  0  0  0  0  4           0  0  0
   -1.1930   -4.2640   -0.7873 C   0  0  0  0  0  4           0  0  0
  1 14  2  0     0  0
  2 15  2  0     0  0
  3 16  1  0     0  0
  4 17  1  0     0  0
  5  6  1  0     0  0
  5  7  1  0     0  0
  6  8  1  0     0  0
  6  9  2  0     0  0
  7 10  2  0     0  0
  8 10  1  0     0  0
  8 11  2  0     0  0
  9 12  1  0     0  0
  9 19  1  0     0  0
 10 18  1  0     0  0
 11 13  1  0     0  0
 12 13  2  0     0  0
 14 17  1  0     0  0
 14 18  1  0     0  0
 15 16  1  0     0  0
 15 22  1  0     0  0
 16 18  2  0     0  0
 17 22  2  0     0  0
 19 23  2  0     0  0
 20 24  2  0     0  0
 20 26  1  0     0  0
 20 29  1  0     0  0
 21 25  2  0     0  0
 21 30  1  0     0  0
 21 31  1  0     0  0
 23 27  1  0     0  0
 24 27  1  0     0  0
 25 28  1  0     0  0
 26 28  1  0     0  0
M  END
> <standard_type>
IC50

> <# Confs.>
25

> <canonical_smiles>
O=C1C=C(O)C(C(C2=CNC3=C(/C=C/C/C=C(C)/CC/C=C(C)/C)C=CC=C32)=C1O)=O

> <standard_relation>
=

> <predicted_activity_value>
4.481486060122113

> <actual_activity_value>
4.022276394711152

> <Compound>
18

> <publication_ID>
nan

> <standard_units>
nM

> hash
10709288634941402673

$$$$
18_
XXILIB    08252103493D 0   0.00000     0.00000

 31 33  0     1  0            999 V2000
   -7.6938    1.5826    4.3221 O   0  0  0  0  0  2           0  0  0
   -6.5302    4.6927    8.4765 O   0  0  0  0  0  2           0  0  0
   -4.4739    4.1325    6.7407 O   0  0  0  0  0  2           0  0  0
   -9.6466    2.0012    6.1625 O   0  0  0  0  0  2           0  0  0
   -4.0056    2.2738    2.5194 N   0  0  0  0  0  3           0  0  0
   -3.1548    1.6570    3.4135 C   0  0  0  0  0  4           0  0  0
   -5.1137    2.7560    3.1572 C   0  0  0  0  0  4           0  0  0
   -3.7638    1.7566    4.6740 C   0  0  0  0  0  4           0  0  0
   -1.9116    1.0191    3.2121 C   0  0  0  0  0  4           0  0  0
   -5.0069    2.4549    4.4981 C   0  0  0  0  0  4           0  0  0
   -3.0928    1.1947    5.7835 C   0  0  0  0  0  4           0  0  0
   -1.2785    0.4807    4.3449 C   0  0  0  0  0  4           0  0  0
   -1.8587    0.5651    5.6063 C   0  0  0  0  0  4           0  0  0
   -7.3829    2.2594    5.3000 C   0  0  0  0  0  4           0  0  0
   -6.7732    3.9470    7.5327 C   0  0  0  0  0  4           0  0  0
   -5.7357    3.6047    6.5281 C   0  0  0  0  0  4           0  0  0
   -8.3987    2.5645    6.3350 C   0  0  0  0  0  4           0  0  0
   -5.9953    2.8051    5.4762 C   0  0  0  0  0  4           0  0  0
   -1.3487    0.9718    1.8698 C   0  0  0  0  0  4           0  0  0
    2.3301    0.9193   -0.5307 C   0  0  0  0  0  4           0  0  0
    0.1471    5.2720   -0.8640 C   0  0  0  0  0  4           0  0  0
   -8.1100    3.3540    7.3711 C   0  0  0  0  0  4           0  0  0
   -0.5542    0.0000    1.3912 C   0  0  0  0  0  4           0  0  0
    1.4995    0.0000    0.0000 C   0  0  0  0  0  4           0  0  0
    1.2757    4.5594   -1.0433 C   0  0  0  0  0  4           0  0  0
    1.8927    2.1504   -1.2649 C   0  0  0  0  0  4           0  0  0
    0.0000    0.0000   -0.0000 C   0  0  0  0  0  4           0  0  0
    1.7132    3.3283   -0.3092 C   0  0  0  0  0  4           0  0  0
    3.8235    0.7434   -0.4195 C   0  0  0  0  0  4           0  0  0
   -0.1484    6.4655   -1.7337 C   0  0  0  0  0  4           0  0  0
   -0.9016    4.9880    0.1734 C   0  0  0  0  0  4           0  0  0
  1 14  2  0     0  0
  2 15  2  0     0  0
  3 16  1  0     0  0
  4 17  1  0     0  0
  5  6  1  0     0  0
  5  7  1  0     0  0
  6  8  1  0     0  0
  6  9  2  0     0  0
  7 10  2  0     0  0
  8 10  1  0     0  0
  8 11  2  0     0  0
  9 12  1  0     0  0
  9 19  1  0     0  0
 10 18  1  0     0  0
 11 13  1  0     0  0
 12 13  2  0     0  0
 14 17  1  0     0  0
 14 18  1  0     0  0
 15 16  1  0     0  0
 15 22  1  0     0  0
 16 18  2  0     0  0
 17 22  2  0     0  0
 19 23  2  0     0  0
 20 24  2  0     0  0
 20 26  1  0     0  0
 20 29  1  0     0  0
 21 25  2  0     0  0
 21 30  1  0     0  0
 21 31  1  0     0  0
 23 27  1  0     0  0
 24 27  1  0     0  0
 25 28  1  0     0  0
 26 28  1  0     0  0
M  END
> <standard_type>
IC50

> <# Confs.>
25

> <canonical_smiles>
O=C1C=C(O)C(C(C2=CNC3=C(/C=C/C/C=C(C)/CC/C=C(C)/C)C=CC=C32)=C1O)=O

> <standard_relation>
=

> <predicted_activity_value>
4.481486060122113

> <actual_activity_value>
4.022276394711152

> <Compound>
18

> <publication_ID>
nan

> <standard_units>
nM

> hash
10709288634941402673

$$$$
18_
XXILIB    08252103493D 0   0.00000     0.00000

 31 33  0     1  0            999 V2000
   -5.0572   -5.5465    5.3118 O   0  0  0  0  0  2           0  0  0
   -2.8275   -4.7923   10.0810 O   0  0  0  0  0  2           0  0  0
   -1.6985   -3.4493    7.9650 O   0  0  0  0  0  2           0  0  0
   -6.0201   -7.0030    7.3920 O   0  0  0  0  0  2           0  0  0
   -1.9485   -3.5522    3.3388 N   0  0  0  0  0  3           0  0  0
   -2.1640   -2.2728    3.8081 C   0  0  0  0  0  4           0  0  0
   -2.3390   -4.4804    4.2624 C   0  0  0  0  0  4           0  0  0
   -2.7148   -2.4086    5.0919 C   0  0  0  0  0  4           0  0  0
   -1.9132   -1.0181    3.2115 C   0  0  0  0  0  4           0  0  0
   -2.8196   -3.8142    5.3694 C   0  0  0  0  0  4           0  0  0
   -3.0325   -1.2322    5.8075 C   0  0  0  0  0  4           0  0  0
   -2.2506    0.1235    3.9577 C   0  0  0  0  0  4           0  0  0
   -2.7981    0.0187    5.2321 C   0  0  0  0  0  4           0  0  0
   -4.4887   -5.3943    6.3910 C   0  0  0  0  0  4           0  0  0
   -3.3074   -4.9836    8.9679 C   0  0  0  0  0  4           0  0  0
   -2.7831   -4.2862    7.7672 C   0  0  0  0  0  4           0  0  0
   -4.9730   -6.1254    7.5857 C   0  0  0  0  0  4           0  0  0
   -3.3146   -4.4710    6.5440 C   0  0  0  0  0  4           0  0  0
   -1.3487   -0.9718    1.8698 C   0  0  0  0  0  4           0  0  0
    2.3301    0.9193   -0.5307 C   0  0  0  0  0  4           0  0  0
    2.0509    5.5126   -1.5949 C   0  0  0  0  0  4           0  0  0
   -4.4210   -5.9276    8.7842 C   0  0  0  0  0  4           0  0  0
   -0.5542    0.0000    1.3912 C   0  0  0  0  0  4           0  0  0
    1.4995    0.0000    0.0000 C   0  0  0  0  0  4           0  0  0
    1.2757    4.5594   -1.0433 C   0  0  0  0  0  4           0  0  0
    1.8927    2.1504   -1.2649 C   0  0  0  0  0  4           0  0  0
    0.0000    0.0000    0.0000 C   0  0  0  0  0  4           0  0  0
    1.7132    3.3283   -0.3092 C   0  0  0  0  0  4           0  0  0
    3.8235    0.7434   -0.4195 C   0  0  0  0  0  4           0  0  0
    1.4288    6.7127   -2.2589 C   0  0  0  0  0  4           0  0  0
    3.5528    5.4995   -1.6231 C   0  0  0  0  0  4           0  0  0
  1 14  2  0     0  0
  2 15  2  0     0  0
  3 16  1  0     0  0
  4 17  1  0     0  0
  5  6  1  0     0  0
  5  7  1  0     0  0
  6  8  1  0     0  0
  6  9  2  0     0  0
  7 10  2  0     0  0
  8 10  1  0     0  0
  8 11  2  0     0  0
  9 12  1  0     0  0
  9 19  1  0     0  0
 10 18  1  0     0  0
 11 13  1  0     0  0
 12 13  2  0     0  0
 14 17  1  0     0  0
 14 18  1  0     0  0
 15 16  1  0     0  0
 15 22  1  0     0  0
 16 18  2  0     0  0
 17 22  2  0     0  0
 19 23  2  0     0  0
 20 24  2  0     0  0
 20 26  1  0     0  0
 20 29  1  0     0  0
 21 25  2  0     0  0
 21 30  1  0     0  0
 21 31  1  0     0  0
 23 27  1  0     0  0
 24 27  1  0     0  0
 25 28  1  0     0  0
 26 28  1  0     0  0
M  END
> <standard_type>
IC50

> <# Confs.>
25

> <canonical_smiles>
O=C1C=C(O)C(C(C2=CNC3=C(/C=C/C/C=C(C)/CC/C=C(C)/C)C=CC=C32)=C1O)=O

> <standard_relation>
=

> <predicted_activity_value>
4.481486060122113

> <actual_activity_value>
4.022276394711152

> <Compound>
18

> <publication_ID>
nan

> <standard_units>
nM

> hash
10709288634941402673

$$$$
18_
XXILIB    08252103493D 0   0.00000     0.00000

 31 33  0     1  0            999 V2000
   -5.7118    5.1397    5.0511 O   0  0  0  0  0  2           0  0  0
   -8.2212    1.4402    7.9325 O   0  0  0  0  0  2           0  0  0
   -6.3821    0.5386    6.0994 O   0  0  0  0  0  2           0  0  0
   -7.6726    5.9760    6.7338 O   0  0  0  0  0  2           0  0  0
   -4.0056    2.2738    2.5194 N   0  0  0  0  0  3           0  0  0
   -3.1548    1.6570    3.4135 C   0  0  0  0  0  4           0  0  0
   -5.1137    2.7560    3.1572 C   0  0  0  0  0  4           0  0  0
   -3.7638    1.7566    4.6740 C   0  0  0  0  0  4           0  0  0
   -1.9116    1.0191    3.2121 C   0  0  0  0  0  4           0  0  0
   -5.0069    2.4549    4.4981 C   0  0  0  0  0  4           0  0  0
   -3.0928    1.1947    5.7835 C   0  0  0  0  0  4           0  0  0
   -1.2785    0.4807    4.3449 C   0  0  0  0  0  4           0  0  0
   -1.8587    0.5651    5.6063 C   0  0  0  0  0  4           0  0  0
   -6.3133    4.2604    5.6642 C   0  0  0  0  0  4           0  0  0
   -7.6597    2.2788    7.2342 C   0  0  0  0  0  4           0  0  0
   -6.6340    1.8930    6.2333 C   0  0  0  0  0  4           0  0  0
   -7.3749    4.6326    6.6289 C   0  0  0  0  0  4           0  0  0
   -5.9953    2.8051    5.4762 C   0  0  0  0  0  4           0  0  0
   -1.3487    0.9718    1.8698 C   0  0  0  0  0  4           0  0  0
    2.3301    0.9193   -0.5307 C   0  0  0  0  0  4           0  0  0
    0.0547    3.5160   -3.7539 C   0  0  0  0  0  4           0  0  0
   -7.9964    3.7055    7.3600 C   0  0  0  0  0  4           0  0  0
   -0.5542    0.0000    1.3912 C   0  0  0  0  0  4           0  0  0
    1.4995    0.0000   -0.0000 C   0  0  0  0  0  4           0  0  0
    1.3126    3.1105   -3.4953 C   0  0  0  0  0  4           0  0  0
    1.8927    2.1504   -1.2649 C   0  0  0  0  0  4           0  0  0
    0.0000    0.0000   -0.0000 C   0  0  0  0  0  4           0  0  0
    1.7500    1.8793   -2.7612 C   0  0  0  0  0  4           0  0  0
    3.8235    0.7434   -0.4195 C   0  0  0  0  0  4           0  0  0
   -0.1947    4.7684   -4.5522 C   0  0  0  0  0  4           0  0  0
   -1.1930    2.8138   -3.2991 C   0  0  0  0  0  4           0  0  0
  1 14  2  0     0  0
  2 15  2  0     0  0
  3 16  1  0     0  0
  4 17  1  0     0  0
  5  6  1  0     0  0
  5  7  1  0     0  0
  6  8  1  0     0  0
  6  9  2  0     0  0
  7 10  2  0     0  0
  8 10  1  0     0  0
  8 11  2  0     0  0
  9 12  1  0     0  0
  9 19  1  0     0  0
 10 18  1  0     0  0
 11 13  1  0     0  0
 12 13  2  0     0  0
 14 17  1  0     0  0
 14 18  1  0     0  0
 15 16  1  0     0  0
 15 22  1  0     0  0
 16 18  2  0     0  0
 17 22  2  0     0  0
 19 23  2  0     0  0
 20 24  2  0     0  0
 20 26  1  0     0  0
 20 29  1  0     0  0
 21 25  2  0     0  0
 21 30  1  0     0  0
 21 31  1  0     0  0
 23 27  1  0     0  0
 24 27  1  0     0  0
 25 28  1  0     0  0
 26 28  1  0     0  0
M  END
> <standard_type>
IC50

> <# Confs.>
25

> <canonical_smiles>
O=C1C=C(O)C(C(C2=CNC3=C(/C=C/C/C=C(C)/CC/C=C(C)/C)C=CC=C32)=C1O)=O

> <standard_relation>
=

> <predicted_activity_value>
4.481486060122113

> <actual_activity_value>
4.022276394711152

> <Compound>
18

> <publication_ID>
nan

> <standard_units>
nM

> hash
10709288634941402673

$$$$
18_
XXILIB    08252103493D 0   0.00000     0.00000

 31 33  0     1  0            999 V2000
   -5.7604   -5.1363    5.0067 O   0  0  0  0  0  2           0  0  0
   -8.3132   -1.4285    7.8388 O   0  0  0  0  0  2           0  0  0
   -6.4382   -0.5328    6.0395 O   0  0  0  0  0  2           0  0  0
   -7.4789   -5.9879    6.9295 O   0  0  0  0  0  2           0  0  0
   -3.9902   -2.3031    2.5230 N   0  0  0  0  0  3           0  0  0
   -3.1563   -1.6566    3.4119 C   0  0  0  0  0  4           0  0  0
   -5.1004   -2.7822    3.1592 C   0  0  0  0  0  4           0  0  0
   -3.7761   -1.7383    4.6685 C   0  0  0  0  0  4           0  0  0
   -1.9132   -1.0181    3.2115 C   0  0  0  0  0  4           0  0  0
   -5.0084   -2.4560    4.4954 C   0  0  0  0  0  4           0  0  0
   -3.1210   -1.1486    5.7731 C   0  0  0  0  0  4           0  0  0
   -1.3021   -0.4411    4.3373 C   0  0  0  0  0  4           0  0  0
   -1.8936   -0.5066    5.5946 C   0  0  0  0  0  4           0  0  0
   -6.2956   -4.2609    5.6836 C   0  0  0  0  0  4           0  0  0
   -7.6895   -2.2730    7.2034 C   0  0  0  0  0  4           0  0  0
   -6.6743   -1.8882    6.1914 C   0  0  0  0  0  4           0  0  0
   -7.2732   -4.6378    6.7317 C   0  0  0  0  0  4           0  0  0
   -5.9985   -2.8044    5.4723 C   0  0  0  0  0  4           0  0  0
   -1.3487   -0.9718    1.8698 C   0  0  0  0  0  4           0  0  0
    2.3301   -0.9193   -0.5307 C   0  0  0  0  0  4           0  0  0
    0.1977   -5.3053   -0.7271 C   0  0  0  0  0  4           0  0  0
   -7.9220   -3.7073    7.4343 C   0  0  0  0  0  4           0  0  0
   -0.5542    0.0000    1.3912 C   0  0  0  0  0  4           0  0  0
    1.4995   -0.0000   -0.0000 C   0  0  0  0  0  4           0  0  0
    1.3126   -4.5823   -0.9461 C   0  0  0  0  0  4           0  0  0
    1.8927   -2.1706   -1.2299 C   0  0  0  0  0  4           0  0  0
    0.0000    0.0000    0.0000 C   0  0  0  0  0  4           0  0  0
    1.7500   -3.3309   -0.2469 C   0  0  0  0  0  4           0  0  0
    3.8235   -0.7350   -0.4341 C   0  0  0  0  0  4           0  0  0
   -0.0554   -6.5715   -1.5022 C   0  0  0  0  0  4           0  0  0
   -0.8806   -4.9581    0.2595 C   0  0  0  0  0  4           0  0  0
  1 14  2  0     0  0
  2 15  2  0     0  0
  3 16  1  0     0  0
  4 17  1  0     0  0
  5  6  1  0     0  0
  5  7  1  0     0  0
  6  8  1  0     0  0
  6  9  2  0     0  0
  7 10  2  0     0  0
  8 10  1  0     0  0
  8 11  2  0     0  0
  9 12  1  0     0  0
  9 19  1  0     0  0
 10 18  1  0     0  0
 11 13  1  0     0  0
 12 13  2  0     0  0
 14 17  1  0     0  0
 14 18  1  0     0  0
 15 16  1  0     0  0
 15 22  1  0     0  0
 16 18  2  0     0  0
 17 22  2  0     0  0
 19 23  2  0     0  0
 20 24  2  0     0  0
 20 26  1  0     0  0
 20 29  1  0     0  0
 21 25  2  0     0  0
 21 30  1  0     0  0
 21 31  1  0     0  0
 23 27  1  0     0  0
 24 27  1  0     0  0
 25 28  1  0     0  0
 26 28  1  0     0  0
M  END
> <standard_type>
IC50

> <# Confs.>
25

> <canonical_smiles>
O=C1C=C(O)C(C(C2=CNC3=C(/C=C/C/C=C(C)/CC/C=C(C)/C)C=CC=C32)=C1O)=O

> <standard_relation>
=

> <predicted_activity_value>
4.481486060122113

> <actual_activity_value>
4.022276394711152

> <Compound>
18

> <publication_ID>
nan

> <standard_units>
nM

> hash
10709288634941402673

$$$$
18_
XXILIB    08252103493D 0   0.00000     0.00000

 31 33  0     1  0            999 V2000
   -1.2356   -5.5962    6.8946 O   0  0  0  0  0  2           0  0  0
   -6.2228   -4.8837    8.5989 O   0  0  0  0  0  2           0  0  0
   -5.4828   -3.5055    6.3388 O   0  0  0  0  0  2           0  0  0
   -1.9461   -6.7868    9.2298 O   0  0  0  0  0  2           0  0  0
   -1.9485   -3.5522    3.3388 N   0  0  0  0  0  3           0  0  0
   -2.1640   -2.2728    3.8081 C   0  0  0  0  0  4           0  0  0
   -2.3390   -4.4804    4.2624 C   0  0  0  0  0  4           0  0  0
   -2.7148   -2.4086    5.0919 C   0  0  0  0  0  4           0  0  0
   -1.9132   -1.0181    3.2115 C   0  0  0  0  0  4           0  0  0
   -2.8196   -3.8142    5.3694 C   0  0  0  0  0  4           0  0  0
   -3.0325   -1.2322    5.8075 C   0  0  0  0  0  4           0  0  0
   -2.2506    0.1235    3.9577 C   0  0  0  0  0  4           0  0  0
   -2.7981    0.0187    5.2321 C   0  0  0  0  0  4           0  0  0
   -2.3759   -5.3710    7.2944 C   0  0  0  0  0  4           0  0  0
   -5.0646   -5.0089    8.2133 C   0  0  0  0  0  4           0  0  0
   -4.5768   -4.3249    6.9897 C   0  0  0  0  0  4           0  0  0
   -2.8558   -6.0092    8.5429 C   0  0  0  0  0  4           0  0  0
   -3.3146   -4.4710    6.5440 C   0  0  0  0  0  4           0  0  0
   -1.3487   -0.9718    1.8698 C   0  0  0  0  0  4           0  0  0
    2.3301    0.9193   -0.5307 C   0  0  0  0  0  4           0  0  0
    0.0547    3.5160   -3.7539 C   0  0  0  0  0  4           0  0  0
   -4.1104   -5.8396    8.9643 C   0  0  0  0  0  4           0  0  0
   -0.5542    0.0000    1.3912 C   0  0  0  0  0  4           0  0  0
    1.4995    0.0000   -0.0000 C   0  0  0  0  0  4           0  0  0
    1.3126    3.1105   -3.4953 C   0  0  0  0  0  4           0  0  0
    1.8927    2.1504   -1.2649 C   0  0  0  0  0  4           0  0  0
    0.0000    0.0000    0.0000 C   0  0  0  0  0  4           0  0  0
    1.7500    1.8793   -2.7612 C   0  0  0  0  0  4           0  0  0
    3.8235    0.7434   -0.4195 C   0  0  0  0  0  4           0  0  0
   -0.1947    4.7684   -4.5522 C   0  0  0  0  0  4           0  0  0
   -1.1930    2.8138   -3.2991 C   0  0  0  0  0  4           0  0  0
  1 14  2  0     0  0
  2 15  2  0     0  0
  3 16  1  0     0  0
  4 17  1  0     0  0
  5  6  1  0     0  0
  5  7  1  0     0  0
  6  8  1  0     0  0
  6  9  2  0     0  0
  7 10  2  0     0  0
  8 10  1  0     0  0
  8 11  2  0     0  0
  9 12  1  0     0  0
  9 19  1  0     0  0
 10 18  1  0     0  0
 11 13  1  0     0  0
 12 13  2  0     0  0
 14 17  1  0     0  0
 14 18  1  0     0  0
 15 16  1  0     0  0
 15 22  1  0     0  0
 16 18  2  0     0  0
 17 22  2  0     0  0
 19 23  2  0     0  0
 20 24  2  0     0  0
 20 26  1  0     0  0
 20 29  1  0     0  0
 21 25  2  0     0  0
 21 30  1  0     0  0
 21 31  1  0     0  0
 23 27  1  0     0  0
 24 27  1  0     0  0
 25 28  1  0     0  0
 26 28  1  0     0  0
M  END
> <standard_type>
IC50

> <# Confs.>
25

> <canonical_smiles>
O=C1C=C(O)C(C(C2=CNC3=C(/C=C/C/C=C(C)/CC/C=C(C)/C)C=CC=C32)=C1O)=O

> <standard_relation>
=

> <predicted_activity_value>
4.481486060122113

> <actual_activity_value>
4.022276394711152

> <Compound>
18

> <publication_ID>
nan

> <standard_units>
nM

> hash
10709288634941402673

$$$$
18_
XXILIB    08252103493D 0   0.00000     0.00000

 31 33  0     1  0            999 V2000
   -5.0172    5.5982    5.3027 O   0  0  0  0  0  2           0  0  0
   -2.7426    4.8905   10.0577 O   0  0  0  0  0  2           0  0  0
   -1.6464    3.5107    7.9482 O   0  0  0  0  0  2           0  0  0
   -6.1877    6.7903    7.4439 O   0  0  0  0  0  2           0  0  0
   -1.9785    3.5533    3.3243 N   0  0  0  0  0  3           0  0  0
   -2.1624    2.2743    3.8078 C   0  0  0  0  0  4           0  0  0
   -2.3650    4.4822    4.2489 C   0  0  0  0  0  4           0  0  0
   -2.6936    2.4110    5.0997 C   0  0  0  0  0  4           0  0  0
   -1.9116    1.0191    3.2121 C   0  0  0  0  0  4           0  0  0
   -2.8187    3.8168    5.3676 C   0  0  0  0  0  4           0  0  0
   -2.9818    1.2352    5.8286 C   0  0  0  0  0  4           0  0  0
   -2.2079   -0.1219    3.9764 C   0  0  0  0  0  4           0  0  0
   -2.7347   -0.0161    5.2595 C   0  0  0  0  0  4           0  0  0
   -4.5044    5.3741    6.3971 C   0  0  0  0  0  4           0  0  0
   -3.2781    5.0145    8.9606 C   0  0  0  0  0  4           0  0  0
   -2.7457    4.3297    7.7563 C   0  0  0  0  0  4           0  0  0
   -5.0601    6.0132    7.6132 C   0  0  0  0  0  4           0  0  0
   -3.3111    4.4746    6.5428 C   0  0  0  0  0  4           0  0  0
   -1.3487    0.9718    1.8698 C   0  0  0  0  0  4           0  0  0
    2.3301    0.9193   -0.5307 C   0  0  0  0  0  4           0  0  0
    0.0547    3.5160   -3.7539 C   0  0  0  0  0  4           0  0  0
   -4.4826    5.8448    8.8043 C   0  0  0  0  0  4           0  0  0
   -0.5542    0.0000    1.3912 C   0  0  0  0  0  4           0  0  0
    1.4995    0.0000   -0.0000 C   0  0  0  0  0  4           0  0  0
    1.3126    3.1105   -3.4953 C   0  0  0  0  0  4           0  0  0
    1.8927    2.1504   -1.2649 C   0  0  0  0  0  4           0  0  0
    0.0000    0.0000   -0.0000 C   0  0  0  0  0  4           0  0  0
    1.7500    1.8793   -2.7612 C   0  0  0  0  0  4           0  0  0
    3.8235    0.7434   -0.4195 C   0  0  0  0  0  4           0  0  0
   -0.1947    4.7684   -4.5522 C   0  0  0  0  0  4           0  0  0
   -1.1930    2.8138   -3.2991 C   0  0  0  0  0  4           0  0  0
  1 14  2  0     0  0
  2 15  2  0     0  0
  3 16  1  0     0  0
  4 17  1  0     0  0
  5  6  1  0     0  0
  5  7  1  0     0  0
  6  8  1  0     0  0
  6  9  2  0     0  0
  7 10  2  0     0  0
  8 10  1  0     0  0
  8 11  2  0     0  0
  9 12  1  0     0  0
  9 19  1  0     0  0
 10 18  1  0     0  0
 11 13  1  0     0  0
 12 13  2  0     0  0
 14 17  1  0     0  0
 14 18  1  0     0  0
 15 16  1  0     0  0
 15 22  1  0     0  0
 16 18  2  0     0  0
 17 22  2  0     0  0
 19 23  2  0     0  0
 20 24  2  0     0  0
 20 26  1  0     0  0
 20 29  1  0     0  0
 21 25  2  0     0  0
 21 30  1  0     0  0
 21 31  1  0     0  0
 23 27  1  0     0  0
 24 27  1  0     0  0
 25 28  1  0     0  0
 26 28  1  0     0  0
M  END
> <standard_type>
IC50

> <# Confs.>
25

> <canonical_smiles>
O=C1C=C(O)C(C(C2=CNC3=C(/C=C/C/C=C(C)/CC/C=C(C)/C)C=CC=C32)=C1O)=O

> <standard_relation>
=

> <predicted_activity_value>
4.481486060122113

> <actual_activity_value>
4.022276394711152

> <Compound>
18

> <publication_ID>
nan

> <standard_units>
nM

> hash
10709288634941402673

$$$$
18_
XXILIB    08252103493D 0   0.00000     0.00000

 31 33  0     1  0            999 V2000
   -7.6938    1.5826    4.3221 O   0  0  0  0  0  2           0  0  0
   -6.5302    4.6927    8.4765 O   0  0  0  0  0  2           0  0  0
   -4.4739    4.1325    6.7407 O   0  0  0  0  0  2           0  0  0
   -9.6466    2.0012    6.1625 O   0  0  0  0  0  2           0  0  0
   -4.0056    2.2738    2.5194 N   0  0  0  0  0  3           0  0  0
   -3.1548    1.6570    3.4135 C   0  0  0  0  0  4           0  0  0
   -5.1137    2.7560    3.1572 C   0  0  0  0  0  4           0  0  0
   -3.7638    1.7566    4.6740 C   0  0  0  0  0  4           0  0  0
   -1.9116    1.0191    3.2121 C   0  0  0  0  0  4           0  0  0
   -5.0069    2.4549    4.4981 C   0  0  0  0  0  4           0  0  0
   -3.0928    1.1947    5.7835 C   0  0  0  0  0  4           0  0  0
   -1.2785    0.4807    4.3449 C   0  0  0  0  0  4           0  0  0
   -1.8587    0.5651    5.6063 C   0  0  0  0  0  4           0  0  0
   -7.3829    2.2594    5.3000 C   0  0  0  0  0  4           0  0  0
   -6.7732    3.9470    7.5327 C   0  0  0  0  0  4           0  0  0
   -5.7357    3.6047    6.5281 C   0  0  0  0  0  4           0  0  0
   -8.3987    2.5645    6.3350 C   0  0  0  0  0  4           0  0  0
   -5.9953    2.8051    5.4762 C   0  0  0  0  0  4           0  0  0
   -1.3487    0.9718    1.8698 C   0  0  0  0  0  4           0  0  0
    2.3301    0.9193   -0.5307 C   0  0  0  0  0  4           0  0  0
    2.0509    5.5126   -1.5949 C   0  0  0  0  0  4           0  0  0
   -8.1100    3.3540    7.3711 C   0  0  0  0  0  4           0  0  0
   -0.5542    0.0000    1.3912 C   0  0  0  0  0  4           0  0  0
    1.4995    0.0000    0.0000 C   0  0  0  0  0  4           0  0  0
    1.2757    4.5594   -1.0433 C   0  0  0  0  0  4           0  0  0
    1.8927    2.1504   -1.2649 C   0  0  0  0  0  4           0  0  0
    0.0000    0.0000   -0.0000 C   0  0  0  0  0  4           0  0  0
    1.7132    3.3283   -0.3092 C   0  0  0  0  0  4           0  0  0
    3.8235    0.7434   -0.4195 C   0  0  0  0  0  4           0  0  0
    1.4288    6.7127   -2.2589 C   0  0  0  0  0  4           0  0  0
    3.5528    5.4995   -1.6231 C   0  0  0  0  0  4           0  0  0
  1 14  2  0     0  0
  2 15  2  0     0  0
  3 16  1  0     0  0
  4 17  1  0     0  0
  5  6  1  0     0  0
  5  7  1  0     0  0
  6  8  1  0     0  0
  6  9  2  0     0  0
  7 10  2  0     0  0
  8 10  1  0     0  0
  8 11  2  0     0  0
  9 12  1  0     0  0
  9 19  1  0     0  0
 10 18  1  0     0  0
 11 13  1  0     0  0
 12 13  2  0     0  0
 14 17  1  0     0  0
 14 18  1  0     0  0
 15 16  1  0     0  0
 15 22  1  0     0  0
 16 18  2  0     0  0
 17 22  2  0     0  0
 19 23  2  0     0  0
 20 24  2  0     0  0
 20 26  1  0     0  0
 20 29  1  0     0  0
 21 25  2  0     0  0
 21 30  1  0     0  0
 21 31  1  0     0  0
 23 27  1  0     0  0
 24 27  1  0     0  0
 25 28  1  0     0  0
 26 28  1  0     0  0
M  END
> <standard_type>
IC50

> <# Confs.>
25

> <canonical_smiles>
O=C1C=C(O)C(C(C2=CNC3=C(/C=C/C/C=C(C)/CC/C=C(C)/C)C=CC=C32)=C1O)=O

> <standard_relation>
=

> <predicted_activity_value>
4.481486060122113

> <actual_activity_value>
4.022276394711152

> <Compound>
18

> <publication_ID>
nan

> <standard_units>
nM

> hash
10709288634941402673

$$$$
18_
XXILIB    08252103493D 0   0.00000     0.00000

 31 33  0     1  0            999 V2000
   -5.7118    5.1397    5.0511 O   0  0  0  0  0  2           0  0  0
   -8.2212    1.4402    7.9325 O   0  0  0  0  0  2           0  0  0
   -6.3821    0.5386    6.0994 O   0  0  0  0  0  2           0  0  0
   -7.6726    5.9760    6.7338 O   0  0  0  0  0  2           0  0  0
   -4.0056    2.2738    2.5194 N   0  0  0  0  0  3           0  0  0
   -3.1548    1.6570    3.4135 C   0  0  0  0  0  4           0  0  0
   -5.1137    2.7560    3.1572 C   0  0  0  0  0  4           0  0  0
   -3.7638    1.7566    4.6740 C   0  0  0  0  0  4           0  0  0
   -1.9116    1.0191    3.2121 C   0  0  0  0  0  4           0  0  0
   -5.0069    2.4549    4.4981 C   0  0  0  0  0  4           0  0  0
   -3.0928    1.1947    5.7835 C   0  0  0  0  0  4           0  0  0
   -1.2785    0.4807    4.3449 C   0  0  0  0  0  4           0  0  0
   -1.8587    0.5651    5.6063 C   0  0  0  0  0  4           0  0  0
   -6.3133    4.2604    5.6642 C   0  0  0  0  0  4           0  0  0
   -7.6597    2.2788    7.2342 C   0  0  0  0  0  4           0  0  0
   -6.6340    1.8930    6.2333 C   0  0  0  0  0  4           0  0  0
   -7.3749    4.6326    6.6289 C   0  0  0  0  0  4           0  0  0
   -5.9953    2.8051    5.4762 C   0  0  0  0  0  4           0  0  0
   -1.3487    0.9718    1.8698 C   0  0  0  0  0  4           0  0  0
    2.3301    1.0615    0.0000 C   0  0  0  0  0  4           0  0  0
    0.5141    5.1153    2.2805 C   0  0  0  0  0  4           0  0  0
   -7.9964    3.7055    7.3600 C   0  0  0  0  0  4           0  0  0
   -0.5542    0.0000    1.3912 C   0  0  0  0  0  4           0  0  0
    1.4995    0.0000    0.0000 C   0  0  0  0  0  4           0  0  0
    1.2757    4.4702    1.3762 C   0  0  0  0  0  4           0  0  0
    1.8927    2.4948   -0.0202 C   0  0  0  0  0  4           0  0  0
    0.0000    0.0000   -0.0000 C   0  0  0  0  0  4           0  0  0
    1.7132    3.0370    1.3964 C   0  0  0  0  0  4           0  0  0
    3.8235    0.8536    0.0084 C   0  0  0  0  0  4           0  0  0
    0.1349    6.5574    2.0693 C   0  0  0  0  0  4           0  0  0
   -0.0205    4.5147    3.5493 C   0  0  0  0  0  4           0  0  0
  1 14  2  0     0  0
  2 15  2  0     0  0
  3 16  1  0     0  0
  4 17  1  0     0  0
  5  6  1  0     0  0
  5  7  1  0     0  0
  6  8  1  0     0  0
  6  9  2  0     0  0
  7 10  2  0     0  0
  8 10  1  0     0  0
  8 11  2  0     0  0
  9 12  1  0     0  0
  9 19  1  0     0  0
 10 18  1  0     0  0
 11 13  1  0     0  0
 12 13  2  0     0  0
 14 17  1  0     0  0
 14 18  1  0     0  0
 15 16  1  0     0  0
 15 22  1  0     0  0
 16 18  2  0     0  0
 17 22  2  0     0  0
 19 23  2  0     0  0
 20 24  2  0     0  0
 20 26  1  0     0  0
 20 29  1  0     0  0
 21 25  2  0     0  0
 21 30  1  0     0  0
 21 31  1  0     0  0
 23 27  1  0     0  0
 24 27  1  0     0  0
 25 28  1  0     0  0
 26 28  1  0     0  0
M  END
> <standard_type>
IC50

> <# Confs.>
25

> <canonical_smiles>
O=C1C=C(O)C(C(C2=CNC3=C(/C=C/C/C=C(C)/CC/C=C(C)/C)C=CC=C32)=C1O)=O

> <standard_relation>
=

> <predicted_activity_value>
4.481486060122113

> <actual_activity_value>
4.022276394711152

> <Compound>
18

> <publication_ID>
nan

> <standard_units>
nM

> hash
10709288634941402673

$$$$
14_
XXILIB    08252103493D 0   0.00000     0.00000

 26 26  0     1  0            999 V2000
    2.1086    2.4051   -5.3796 O   0  0  0  0  0  2           0  0  0
    5.6594    2.5252   -2.8766 O   0  0  0  0  0  2           0  0  0
    2.6923    4.5710   -5.8527 O   0  0  0  0  0  2           0  0  0
    5.6599    5.1803   -3.9595 O   0  0  0  0  0  2           0  0  0
    5.0228    4.8242   -7.3931 O   0  0  0  0  0  2           0  0  0
    3.9171    1.1624   -3.5511 N   0  0  0  0  0  3           0  0  0
    2.8549    3.3587   -5.2396 C   0  0  0  0  0  4           0  0  0
    4.6366    2.3392   -3.5313 C   0  0  0  0  0  4           0  0  0
    4.5567    4.6310   -4.5466 C   0  0  0  0  0  4           0  0  0
    3.7509    5.4591   -5.4666 C   0  0  1  0  0  4           0  0  0
    4.4823    5.9486   -6.7065 C   0  0  0  0  0  4           0  0  0
    4.3069    0.0000   -2.7819 C   0  0  0  0  0  4           0  0  0
    4.0626    3.4007   -4.3915 C   0  0  0  0  0  4           0  0  0
    3.6820   -0.0000   -1.3930 C   0  0  0  0  0  4           0  0  0
    2.1544    0.0000   -1.3930 C   0  0  0  0  0  4           0  0  0
    1.5276   -0.0000    0.0000 C   0  0  0  0  0  4           0  0  0
    0.0000    0.0000    0.0000 C   0  0  0  0  0  4           0  0  0
   -0.6268    0.0000    1.3930 C   0  0  0  0  0  4           0  0  0
   -2.1544   -0.0000    1.3930 C   0  0  0  0  0  4           0  0  0
   -2.7812    0.0000    2.7861 C   0  0  0  0  0  4           0  0  0
   -4.3088   -0.0000    2.7861 C   0  0  0  0  0  4           0  0  0
   -4.9356    0.0000    4.1791 C   0  0  0  0  0  4           0  0  0
   -6.4632   -0.0000    4.1791 C   0  0  0  0  0  4           0  0  0
   -7.0900    0.0000    5.5721 C   0  0  0  0  0  4           0  0  0
   -8.6176   -0.0000    5.5721 C   0  0  0  0  0  4           0  0  0
   -9.1903    0.0000    6.9841 C   0  0  0  0  0  4           0  0  0
  1  7  2  0     0  0
  2  8  2  0     0  0
  3  7  1  0     0  0
  3 10  1  0     0  0
  4  9  1  0     0  0
  5 11  1  0     0  0
  6  8  1  0     0  0
  6 12  1  0     0  0
  7 13  1  0     0  0
  8 13  1  0     0  0
  9 10  1  0     0  0
  9 13  2  0     0  0
 10 11  1  0     0  0
 12 14  1  0     0  0
 14 15  1  0     0  0
 15 16  1  0     0  0
 16 17  1  0     0  0
 17 18  1  0     0  0
 18 19  1  0     0  0
 19 20  1  0     0  0
 20 21  1  0     0  0
 21 22  1  0     0  0
 22 23  1  0     0  0
 23 24  1  0     0  0
 24 25  1  0     0  0
 25 26  1  0     0  0
M  END
> <standard_type>
IC50

> <# Confs.>
25

> <canonical_smiles>
OC([C@@H](CO)O1)=C(C(NCCCCCCCCCCCCCC)=O)C1=O

> <standard_relation>
=

> <predicted_activity_value>
4.619788758288394

> <actual_activity_value>
5.102372908709558

> <Compound>
14

> <publication_ID>
nan

> <standard_units>
nM

> hash
12394674710830410581

$$$$
14_
XXILIB    08252103493D 0   0.00000     0.00000

 26 26  0     1  0            999 V2000
    2.1014   -2.4093   -5.3696 O   0  0  0  0  0  2           0  0  0
    5.6594   -2.5252   -2.8766 O   0  0  0  0  0  2           0  0  0
    2.7031   -4.5647   -5.8678 O   0  0  0  0  0  2           0  0  0
    5.6901   -5.1625   -4.0016 O   0  0  0  0  0  2           0  0  0
    2.4025   -6.3646   -3.7376 O   0  0  0  0  0  2           0  0  0
    3.9171   -1.1624   -3.5511 N   0  0  0  0  0  3           0  0  0
    2.8536   -3.3595   -5.2377 C   0  0  0  0  0  4           0  0  0
    4.6366   -2.3392   -3.5313 C   0  0  0  0  0  4           0  0  0
    4.5633   -4.6271   -4.5558 C   0  0  0  0  0  4           0  0  0
    3.7631   -5.4520   -5.4836 C   0  0  1  0  0  4           0  0  0
    3.1740   -6.7177   -4.8813 C   0  0  0  0  0  4           0  0  0
    4.3069    0.0000   -2.7819 C   0  0  0  0  0  4           0  0  0
    4.0614   -3.4014   -4.3899 C   0  0  0  0  0  4           0  0  0
    3.6820   -0.0000   -1.3930 C   0  0  0  0  0  4           0  0  0
    2.1544    0.0000   -1.3930 C   0  0  0  0  0  4           0  0  0
    1.5276    0.0000   -0.0000 C   0  0  0  0  0  4           0  0  0
    0.0000    0.0000    0.0000 C   0  0  0  0  0  4           0  0  0
   -0.6268    0.0000    1.3930 C   0  0  0  0  0  4           0  0  0
   -2.1544   -0.0000    1.3930 C   0  0  0  0  0  4           0  0  0
   -2.7812    0.0000    2.7861 C   0  0  0  0  0  4           0  0  0
   -4.3088   -0.0000    2.7861 C   0  0  0  0  0  4           0  0  0
   -4.9356    0.0000    4.1791 C   0  0  0  0  0  4           0  0  0
   -6.4632   -0.0000    4.1791 C   0  0  0  0  0  4           0  0  0
   -7.0900    0.0000    5.5721 C   0  0  0  0  0  4           0  0  0
   -8.6176   -0.0000    5.5721 C   0  0  0  0  0  4           0  0  0
   -9.1903    0.0000    6.9841 C   0  0  0  0  0  4           0  0  0
  1  7  2  0     0  0
  2  8  2  0     0  0
  3  7  1  0     0  0
  3 10  1  0     0  0
  4  9  1  0     0  0
  5 11  1  0     0  0
  6  8  1  0     0  0
  6 12  1  0     0  0
  7 13  1  0     0  0
  8 13  1  0     0  0
  9 10  1  0     0  0
  9 13  2  0     0  0
 10 11  1  0     0  0
 12 14  1  0     0  0
 14 15  1  0     0  0
 15 16  1  0     0  0
 16 17  1  0     0  0
 17 18  1  0     0  0
 18 19  1  0     0  0
 19 20  1  0     0  0
 20 21  1  0     0  0
 21 22  1  0     0  0
 22 23  1  0     0  0
 23 24  1  0     0  0
 24 25  1  0     0  0
 25 26  1  0     0  0
M  END
> <standard_type>
IC50

> <# Confs.>
25

> <canonical_smiles>
OC([C@@H](CO)O1)=C(C(NCCCCCCCCCCCCCC)=O)C1=O

> <standard_relation>
=

> <predicted_activity_value>
4.619788758288394

> <actual_activity_value>
5.102372908709558

> <Compound>
14

> <publication_ID>
nan

> <standard_units>
nM

> hash
12394674710830410581

$$$$
14_
XXILIB    08252103493D 0   0.00000     0.00000

 26 26  0     1  0            999 V2000
    8.2083    1.4568   -2.6348 O   0  0  0  0  0  2           0  0  0
    6.0197   -2.2971   -2.7145 O   0  0  0  0  0  2           0  0  0
   10.0401    0.0809   -2.5463 O   0  0  0  0  0  2           0  0  0
    8.7243   -3.2402   -2.5805 O   0  0  0  0  0  2           0  0  0
   10.5280   -1.3387   -4.9159 O   0  0  0  0  0  2           0  0  0
    5.7531    0.0000   -2.7250 N   0  0  0  0  0  3           0  0  0
    8.6983    0.3408   -2.6102 C   0  0  0  0  0  4           0  0  0
    6.4934   -1.1637   -2.6958 C   0  0  0  0  0  4           0  0  0
    8.8930   -1.8857   -2.5953 C   0  0  0  0  0  4           0  0  0
   10.2628   -1.3364   -2.5364 C   0  0  1  0  0  4           0  0  0
   11.1644   -1.7181   -3.6997 C   0  0  0  0  0  4           0  0  0
    4.3069    0.0000   -2.7819 C   0  0  0  0  0  4           0  0  0
    7.9566   -0.9354   -2.6393 C   0  0  0  0  0  4           0  0  0
    3.6820    0.0000   -1.3930 C   0  0  0  0  0  4           0  0  0
    2.1544    0.0000   -1.3930 C   0  0  0  0  0  4           0  0  0
    1.5276   -0.0000    0.0000 C   0  0  0  0  0  4           0  0  0
    0.0000    0.0000    0.0000 C   0  0  0  0  0  4           0  0  0
   -0.6268    0.0000    1.3930 C   0  0  0  0  0  4           0  0  0
   -2.1544   -0.0000    1.3930 C   0  0  0  0  0  4           0  0  0
   -2.7812    0.0000    2.7861 C   0  0  0  0  0  4           0  0  0
   -4.3088   -0.0000    2.7861 C   0  0  0  0  0  4           0  0  0
   -4.9356    0.0000    4.1791 C   0  0  0  0  0  4           0  0  0
   -6.4632   -0.0000    4.1791 C   0  0  0  0  0  4           0  0  0
   -7.0900    0.0000    5.5721 C   0  0  0  0  0  4           0  0  0
   -8.6176   -0.0000    5.5721 C   0  0  0  0  0  4           0  0  0
   -9.1903    0.0000    6.9841 C   0  0  0  0  0  4           0  0  0
  1  7  2  0     0  0
  2  8  2  0     0  0
  3  7  1  0     0  0
  3 10  1  0     0  0
  4  9  1  0     0  0
  5 11  1  0     0  0
  6  8  1  0     0  0
  6 12  1  0     0  0
  7 13  1  0     0  0
  8 13  1  0     0  0
  9 10  1  0     0  0
  9 13  2  0     0  0
 10 11  1  0     0  0
 12 14  1  0     0  0
 14 15  1  0     0  0
 15 16  1  0     0  0
 16 17  1  0     0  0
 17 18  1  0     0  0
 18 19  1  0     0  0
 19 20  1  0     0  0
 20 21  1  0     0  0
 21 22  1  0     0  0
 22 23  1  0     0  0
 23 24  1  0     0  0
 24 25  1  0     0  0
 25 26  1  0     0  0
M  END
> <standard_type>
IC50

> <# Confs.>
25

> <canonical_smiles>
OC([C@@H](CO)O1)=C(C(NCCCCCCCCCCCCCC)=O)C1=O

> <standard_relation>
=

> <predicted_activity_value>
4.619788758288394

> <actual_activity_value>
5.102372908709558

> <Compound>
14

> <publication_ID>
nan

> <standard_units>
nM

> hash
12394674710830410581

$$$$
14_
XXILIB    08252103493D 0   0.00000     0.00000

 26 26  0     1  0            999 V2000
    2.1014   -3.4455    4.7713 O   0  0  0  0  0  2           0  0  0
    5.6594   -1.2286    3.6251 O   0  0  0  0  0  2           0  0  0
    2.7031   -2.7993    6.8870 O   0  0  0  0  0  2           0  0  0
    5.6901   -0.8843    6.4717 O   0  0  0  0  0  2           0  0  0
    2.4025   -0.0545    7.3807 O   0  0  0  0  0  2           0  0  0
    3.9171   -2.4942    2.7822 N   0  0  0  0  0  3           0  0  0
    2.8536   -2.8563    5.5283 C   0  0  0  0  0  4           0  0  0
    4.6366   -1.8886    3.7914 C   0  0  0  0  0  4           0  0  0
    4.5633   -1.6319    6.2851 C   0  0  0  0  0  4           0  0  0
    3.7631   -2.0229    7.4633 C   0  0  1  0  0  4           0  0  0
    3.1740   -0.8684    8.2584 C   0  0  0  0  0  4           0  0  0
    4.3069   -2.4092    1.3909 C   0  0  0  0  0  4           0  0  0
    4.0614   -2.1010    5.1406 C   0  0  0  0  0  4           0  0  0
    3.6820   -1.2064    0.6965 C   0  0  0  0  0  4           0  0  0
    2.1544   -1.2064    0.6965 C   0  0  0  0  0  4           0  0  0
    1.5276   -0.0000    0.0000 C   0  0  0  0  0  4           0  0  0
   -0.0000    0.0000    0.0000 C   0  0  0  0  0  4           0  0  0
   -0.6268   -0.0000    1.3930 C   0  0  0  0  0  4           0  0  0
   -0.2489    1.2064    2.2505 C   0  0  0  0  0  4           0  0  0
   -0.8757    1.2064    3.6435 C   0  0  0  0  0  4           0  0  0
   -0.4978   -0.0000    4.5009 C   0  0  0  0  0  4           0  0  0
   -1.1246   -0.0000    5.8940 C   0  0  0  0  0  4           0  0  0
   -0.7466   -1.2064    6.7514 C   0  0  0  0  0  4           0  0  0
   -1.3735   -1.2064    8.1444 C   0  0  0  0  0  4           0  0  0
   -0.9955   -2.4128    9.0019 C   0  0  0  0  0  4           0  0  0
   -1.6464   -2.3633   10.3787 C   0  0  0  0  0  4           0  0  0
  1  7  2  0     0  0
  2  8  2  0     0  0
  3  7  1  0     0  0
  3 10  1  0     0  0
  4  9  1  0     0  0
  5 11  1  0     0  0
  6  8  1  0     0  0
  6 12  1  0     0  0
  7 13  1  0     0  0
  8 13  1  0     0  0
  9 10  1  0     0  0
  9 13  2  0     0  0
 10 11  1  0     0  0
 12 14  1  0     0  0
 14 15  1  0     0  0
 15 16  1  0     0  0
 16 17  1  0     0  0
 17 18  1  0     0  0
 18 19  1  0     0  0
 19 20  1  0     0  0
 20 21  1  0     0  0
 21 22  1  0     0  0
 22 23  1  0     0  0
 23 24  1  0     0  0
 24 25  1  0     0  0
 25 26  1  0     0  0
M  END
> <standard_type>
IC50

> <# Confs.>
25

> <canonical_smiles>
OC([C@@H](CO)O1)=C(C(NCCCCCCCCCCCCCC)=O)C1=O

> <standard_relation>
=

> <predicted_activity_value>
4.619788758288394

> <actual_activity_value>
5.102372908709558

> <Compound>
14

> <publication_ID>
nan

> <standard_units>
nM

> hash
12394674710830410581

$$$$
14_
XXILIB    08252103493D 0   0.00000     0.00000

 26 26  0     1  0            999 V2000
    2.1086    3.4563    4.7726 O   0  0  0  0  0  2           0  0  0
    5.6594    1.2286    3.6251 O   0  0  0  0  0  2           0  0  0
    2.6923    2.7831    6.8850 O   0  0  0  0  0  2           0  0  0
    5.6599    0.8389    6.4660 O   0  0  0  0  0  2           0  0  0
    5.0228    3.9906    7.8744 O   0  0  0  0  0  2           0  0  0
    3.9171    2.4942    2.7822 N   0  0  0  0  0  3           0  0  0
    2.8549    2.8583    5.5285 C   0  0  0  0  0  4           0  0  0
    4.6366    1.8886    3.7914 C   0  0  0  0  0  4           0  0  0
    4.5567    1.6219    6.2839 C   0  0  0  0  0  4           0  0  0
    3.7509    2.0046    7.4610 C   0  0  1  0  0  4           0  0  0
    4.4823    2.8337    8.5049 C   0  0  0  0  0  4           0  0  0
    4.3069    2.4092    1.3909 C   0  0  0  0  0  4           0  0  0
    4.0626    2.1028    5.1409 C   0  0  0  0  0  4           0  0  0
    3.6820    1.2064    0.6965 C   0  0  0  0  0  4           0  0  0
    2.1544    1.2064    0.6965 C   0  0  0  0  0  4           0  0  0
    1.5276    0.0000   -0.0000 C   0  0  0  0  0  4           0  0  0
    0.0000   -0.0000    0.0000 C   0  0  0  0  0  4           0  0  0
   -0.6268    0.0000    1.3930 C   0  0  0  0  0  4           0  0  0
   -0.2489   -1.2064    2.2505 C   0  0  0  0  0  4           0  0  0
   -0.8757   -1.2064    3.6435 C   0  0  0  0  0  4           0  0  0
   -0.4978   -0.0000    4.5009 C   0  0  0  0  0  4           0  0  0
   -1.1246   -0.0000    5.8940 C   0  0  0  0  0  4           0  0  0
   -0.7466    1.2064    6.7514 C   0  0  0  0  0  4           0  0  0
   -1.3735    1.2064    8.1444 C   0  0  0  0  0  4           0  0  0
   -0.9955    2.4128    9.0019 C   0  0  0  0  0  4           0  0  0
   -1.6464    2.3633   10.3787 C   0  0  0  0  0  4           0  0  0
  1  7  2  0     0  0
  2  8  2  0     0  0
  3  7  1  0     0  0
  3 10  1  0     0  0
  4  9  1  0     0  0
  5 11  1  0     0  0
  6  8  1  0     0  0
  6 12  1  0     0  0
  7 13  1  0     0  0
  8 13  1  0     0  0
  9 10  1  0     0  0
  9 13  2  0     0  0
 10 11  1  0     0  0
 12 14  1  0     0  0
 14 15  1  0     0  0
 15 16  1  0     0  0
 16 17  1  0     0  0
 17 18  1  0     0  0
 18 19  1  0     0  0
 19 20  1  0     0  0
 20 21  1  0     0  0
 21 22  1  0     0  0
 22 23  1  0     0  0
 23 24  1  0     0  0
 24 25  1  0     0  0
 25 26  1  0     0  0
M  END
> <standard_type>
IC50

> <# Confs.>
25

> <canonical_smiles>
OC([C@@H](CO)O1)=C(C(NCCCCCCCCCCCCCC)=O)C1=O

> <standard_relation>
=

> <predicted_activity_value>
4.619788758288394

> <actual_activity_value>
5.102372908709558

> <Compound>
14

> <publication_ID>
nan

> <standard_units>
nM

> hash
12394674710830410581

$$$$
14_
XXILIB    08252103493D 0   0.00000     0.00000

 26 26  0     1  0            999 V2000
    8.2078   -1.4568   -2.6218 O   0  0  0  0  0  2           0  0  0
    6.0197    2.2971   -2.7145 O   0  0  0  0  0  2           0  0  0
   10.0408   -0.0809   -2.5660 O   0  0  0  0  0  2           0  0  0
    8.7265    3.2402   -2.6353 O   0  0  0  0  0  2           0  0  0
   10.3410    1.3387   -0.1654 O   0  0  0  0  0  2           0  0  0
    5.7531    0.0000   -2.7250 N   0  0  0  0  0  3           0  0  0
    8.6982   -0.3408   -2.6078 C   0  0  0  0  0  4           0  0  0
    6.4934    1.1637   -2.6958 C   0  0  0  0  0  4           0  0  0
    8.8935    1.8857   -2.6074 C   0  0  0  0  0  4           0  0  0
   10.2637    1.3364   -2.5585 C   0  0  1  0  0  4           0  0  0
   11.0710    1.7181   -1.3278 C   0  0  0  0  0  4           0  0  0
    4.3069    0.0000   -2.7819 C   0  0  0  0  0  4           0  0  0
    7.9565    0.9354   -2.6372 C   0  0  0  0  0  4           0  0  0
    3.6820    0.0000   -1.3930 C   0  0  0  0  0  4           0  0  0
    2.1544    0.0000   -1.3930 C   0  0  0  0  0  4           0  0  0
    1.5276   -0.0000    0.0000 C   0  0  0  0  0  4           0  0  0
    0.0000    0.0000    0.0000 C   0  0  0  0  0  4           0  0  0
   -0.6268    0.0000    1.3930 C   0  0  0  0  0  4           0  0  0
   -2.1544   -0.0000    1.3930 C   0  0  0  0  0  4           0  0  0
   -2.7812    0.0000    2.7861 C   0  0  0  0  0  4           0  0  0
   -4.3088   -0.0000    2.7861 C   0  0  0  0  0  4           0  0  0
   -4.9356    0.0000    4.1791 C   0  0  0  0  0  4           0  0  0
   -6.4632   -0.0000    4.1791 C   0  0  0  0  0  4           0  0  0
   -7.0900    0.0000    5.5721 C   0  0  0  0  0  4           0  0  0
   -8.6176   -0.0000    5.5721 C   0  0  0  0  0  4           0  0  0
   -9.1903    0.0000    6.9841 C   0  0  0  0  0  4           0  0  0
  1  7  2  0     0  0
  2  8  2  0     0  0
  3  7  1  0     0  0
  3 10  1  0     0  0
  4  9  1  0     0  0
  5 11  1  0     0  0
  6  8  1  0     0  0
  6 12  1  0     0  0
  7 13  1  0     0  0
  8 13  1  0     0  0
  9 10  1  0     0  0
  9 13  2  0     0  0
 10 11  1  0     0  0
 12 14  1  0     0  0
 14 15  1  0     0  0
 15 16  1  0     0  0
 16 17  1  0     0  0
 17 18  1  0     0  0
 18 19  1  0     0  0
 19 20  1  0     0  0
 20 21  1  0     0  0
 21 22  1  0     0  0
 22 23  1  0     0  0
 23 24  1  0     0  0
 24 25  1  0     0  0
 25 26  1  0     0  0
M  END
> <standard_type>
IC50

> <# Confs.>
25

> <canonical_smiles>
OC([C@@H](CO)O1)=C(C(NCCCCCCCCCCCCCC)=O)C1=O

> <standard_relation>
=

> <predicted_activity_value>
4.619788758288394

> <actual_activity_value>
5.102372908709558

> <Compound>
14

> <publication_ID>
nan

> <standard_units>
nM

> hash
12394674710830410581

$$$$
14_
XXILIB    08252103493D 0   0.00000     0.00000

 26 26  0     1  0            999 V2000
    2.1014    4.6484   -1.4913 O   0  0  0  0  0  2           0  0  0
    5.6594    2.5474   -2.8381 O   0  0  0  0  0  2           0  0  0
    2.7031    6.1576   -3.1087 O   0  0  0  0  0  2           0  0  0
    5.6901    4.8404   -4.5596 O   0  0  0  0  0  2           0  0  0
    2.4025    5.2127   -5.7327 O   0  0  0  0  0  2           0  0  0
    3.9171    2.4501   -1.3206 N   0  0  0  0  0  3           0  0  0
    2.8536    5.0094   -2.3801 C   0  0  0  0  0  4           0  0  0
    4.6366    3.0214   -2.3497 C   0  0  0  0  0  4           0  0  0
    4.5633    5.0526   -3.8188 C   0  0  0  0  0  4           0  0  0
    3.7631    6.2685   -4.0693 C   0  0  1  0  0  4           0  0  0
    3.1740    6.3798   -5.4666 C   0  0  0  0  0  4           0  0  0
    4.3069    1.2028   -0.6986 C   0  0  0  0  0  4           0  0  0
    4.0614    4.2961   -2.8403 C   0  0  0  0  0  4           0  0  0
    3.6820    0.0000   -1.3930 C   0  0  0  0  0  4           0  0  0
    2.1544    0.0000   -1.3930 C   0  0  0  0  0  4           0  0  0
    1.5276    0.0000    0.0000 C   0  0  0  0  0  4           0  0  0
    0.0000    0.0000    0.0000 C   0  0  0  0  0  4           0  0  0
   -0.6268    0.0000    1.3930 C   0  0  0  0  0  4           0  0  0
   -2.1544   -0.0000    1.3930 C   0  0  0  0  0  4           0  0  0
   -2.7812    0.0000    2.7861 C   0  0  0  0  0  4           0  0  0
   -4.3088   -0.0000    2.7861 C   0  0  0  0  0  4           0  0  0
   -4.9356    0.0000    4.1791 C   0  0  0  0  0  4           0  0  0
   -6.4632   -0.0000    4.1791 C   0  0  0  0  0  4           0  0  0
   -7.0900    0.0000    5.5721 C   0  0  0  0  0  4           0  0  0
   -8.6176   -0.0000    5.5721 C   0  0  0  0  0  4           0  0  0
   -9.1903    0.0000    6.9841 C   0  0  0  0  0  4           0  0  0
  1  7  2  0     0  0
  2  8  2  0     0  0
  3  7  1  0     0  0
  3 10  1  0     0  0
  4  9  1  0     0  0
  5 11  1  0     0  0
  6  8  1  0     0  0
  6 12  1  0     0  0
  7 13  1  0     0  0
  8 13  1  0     0  0
  9 10  1  0     0  0
  9 13  2  0     0  0
 10 11  1  0     0  0
 12 14  1  0     0  0
 14 15  1  0     0  0
 15 16  1  0     0  0
 16 17  1  0     0  0
 17 18  1  0     0  0
 18 19  1  0     0  0
 19 20  1  0     0  0
 20 21  1  0     0  0
 21 22  1  0     0  0
 22 23  1  0     0  0
 23 24  1  0     0  0
 24 25  1  0     0  0
 25 26  1  0     0  0
M  END
> <standard_type>
IC50

> <# Confs.>
25

> <canonical_smiles>
OC([C@@H](CO)O1)=C(C(NCCCCCCCCCCCCCC)=O)C1=O

> <standard_relation>
=

> <predicted_activity_value>
4.619788758288394

> <actual_activity_value>
5.102372908709558

> <Compound>
14

> <publication_ID>
nan

> <standard_units>
nM

> hash
12394674710830410581

$$$$
14_
XXILIB    08252103493D 0   0.00000     0.00000

 26 26  0     1  0            999 V2000
    2.4968    3.1663    4.8991 O   0  0  0  0  0  2           0  0  0
    0.1256    5.1368    1.8361 O   0  0  0  0  0  2           0  0  0
    0.9254    4.0548    6.3123 O   0  0  0  0  0  2           0  0  0
   -1.3333    5.8445    4.2011 O   0  0  0  0  0  2           0  0  0
   -1.6175    2.8936    6.0810 O   0  0  0  0  0  2           0  0  0
    2.0116    3.8399    2.1661 N   0  0  0  0  0  3           0  0  0
    1.4863    3.8219    5.0862 C   0  0  0  0  0  4           0  0  0
    0.8931    4.5325    2.5812 C   0  0  0  0  0  4           0  0  0
   -0.3206    5.0812    4.7061 C   0  0  0  0  0  4           0  0  0
   -0.2533    4.8595    6.1648 C   0  0  1  0  0  4           0  0  0
   -1.4453    4.1308    6.7649 C   0  0  0  0  0  4           0  0  0
    2.4014    3.7550    0.7749 C   0  0  0  0  0  4           0  0  0
    0.6784    4.4902    4.0469 C   0  0  0  0  0  4           0  0  0
    1.7764    2.5522    0.0805 C   0  0  0  0  0  4           0  0  0
    2.1544    1.2064    0.6965 C   0  0  0  0  0  4           0  0  0
    1.5276   -0.0000   -0.0000 C   0  0  0  0  0  4           0  0  0
    0.0000    0.0000    0.0000 C   0  0  0  0  0  4           0  0  0
   -0.6268    0.0000    1.3930 C   0  0  0  0  0  4           0  0  0
   -2.1544   -0.0000    1.3930 C   0  0  0  0  0  4           0  0  0
   -2.7812    0.0000    2.7861 C   0  0  0  0  0  4           0  0  0
   -4.3088   -0.0000    2.7861 C   0  0  0  0  0  4           0  0  0
   -4.9356    0.0000    4.1791 C   0  0  0  0  0  4           0  0  0
   -6.4632   -0.0000    4.1791 C   0  0  0  0  0  4           0  0  0
   -7.0900    0.0000    5.5721 C   0  0  0  0  0  4           0  0  0
   -8.6176   -0.0000    5.5721 C   0  0  0  0  0  4           0  0  0
   -9.1903    0.0000    6.9841 C   0  0  0  0  0  4           0  0  0
  1  7  2  0     0  0
  2  8  2  0     0  0
  3  7  1  0     0  0
  3 10  1  0     0  0
  4  9  1  0     0  0
  5 11  1  0     0  0
  6  8  1  0     0  0
  6 12  1  0     0  0
  7 13  1  0     0  0
  8 13  1  0     0  0
  9 10  1  0     0  0
  9 13  2  0     0  0
 10 11  1  0     0  0
 12 14  1  0     0  0
 14 15  1  0     0  0
 15 16  1  0     0  0
 16 17  1  0     0  0
 17 18  1  0     0  0
 18 19  1  0     0  0
 19 20  1  0     0  0
 20 21  1  0     0  0
 21 22  1  0     0  0
 22 23  1  0     0  0
 23 24  1  0     0  0
 24 25  1  0     0  0
 25 26  1  0     0  0
M  END
> <standard_type>
IC50

> <# Confs.>
25

> <canonical_smiles>
OC([C@@H](CO)O1)=C(C(NCCCCCCCCCCCCCC)=O)C1=O

> <standard_relation>
=

> <predicted_activity_value>
4.619788758288394

> <actual_activity_value>
5.102372908709558

> <Compound>
14

> <publication_ID>
nan

> <standard_units>
nM

> hash
12394674710830410581

$$$$
14_
XXILIB    08252103493D 0   0.00000     0.00000

 26 26  0     1  0            999 V2000
    2.1086   -4.6550   -1.4826 O   0  0  0  0  0  2           0  0  0
    5.6594   -2.5474   -2.8381 O   0  0  0  0  0  2           0  0  0
    2.6923   -6.1477   -3.1218 O   0  0  0  0  0  2           0  0  0
    5.6599   -4.8128   -4.5961 O   0  0  0  0  0  2           0  0  0
    5.0228   -7.6083   -2.5708 O   0  0  0  0  0  2           0  0  0
    3.9171   -2.4501   -1.3206 N   0  0  0  0  0  3           0  0  0
    2.8549   -5.0106   -2.3785 C   0  0  0  0  0  4           0  0  0
    4.6366   -3.0214   -2.3497 C   0  0  0  0  0  4           0  0  0
    4.5567   -5.0466   -3.8269 C   0  0  0  0  0  4           0  0  0
    3.7509   -6.2573   -4.0840 C   0  0  1  0  0  4           0  0  0
    4.4823   -7.5759   -3.8879 C   0  0  0  0  0  4           0  0  0
    4.3069   -1.2028   -0.6986 C   0  0  0  0  0  4           0  0  0
    4.0626   -4.2971   -2.8389 C   0  0  0  0  0  4           0  0  0
    3.6820   -0.0000   -1.3930 C   0  0  0  0  0  4           0  0  0
    2.1544    0.0000   -1.3930 C   0  0  0  0  0  4           0  0  0
    1.5276   -0.0000    0.0000 C   0  0  0  0  0  4           0  0  0
    0.0000    0.0000    0.0000 C   0  0  0  0  0  4           0  0  0
   -0.6268    0.0000    1.3930 C   0  0  0  0  0  4           0  0  0
   -2.1544   -0.0000    1.3930 C   0  0  0  0  0  4           0  0  0
   -2.7812    0.0000    2.7861 C   0  0  0  0  0  4           0  0  0
   -4.3088   -0.0000    2.7861 C   0  0  0  0  0  4           0  0  0
   -4.9356    0.0000    4.1791 C   0  0  0  0  0  4           0  0  0
   -6.4632   -0.0000    4.1791 C   0  0  0  0  0  4           0  0  0
   -7.0900    0.0000    5.5721 C   0  0  0  0  0  4           0  0  0
   -8.6176   -0.0000    5.5721 C   0  0  0  0  0  4           0  0  0
   -9.1903    0.0000    6.9841 C   0  0  0  0  0  4           0  0  0
  1  7  2  0     0  0
  2  8  2  0     0  0
  3  7  1  0     0  0
  3 10  1  0     0  0
  4  9  1  0     0  0
  5 11  1  0     0  0
  6  8  1  0     0  0
  6 12  1  0     0  0
  7 13  1  0     0  0
  8 13  1  0     0  0
  9 10  1  0     0  0
  9 13  2  0     0  0
 10 11  1  0     0  0
 12 14  1  0     0  0
 14 15  1  0     0  0
 15 16  1  0     0  0
 16 17  1  0     0  0
 17 18  1  0     0  0
 18 19  1  0     0  0
 19 20  1  0     0  0
 20 21  1  0     0  0
 21 22  1  0     0  0
 22 23  1  0     0  0
 23 24  1  0     0  0
 24 25  1  0     0  0
 25 26  1  0     0  0
M  END
> <standard_type>
IC50

> <# Confs.>
25

> <canonical_smiles>
OC([C@@H](CO)O1)=C(C(NCCCCCCCCCCCCCC)=O)C1=O

> <standard_relation>
=

> <predicted_activity_value>
4.619788758288394

> <actual_activity_value>
5.102372908709558

> <Compound>
14

> <publication_ID>
nan

> <standard_units>
nM

> hash
12394674710830410581

$$$$
14_
XXILIB    08252103493D 0   0.00000     0.00000

 26 26  0     1  0            999 V2000
    3.8560   -4.0022   -3.8517 O   0  0  0  0  0  2           0  0  0
    2.9072   -0.0098   -5.2830 O   0  0  0  0  0  2           0  0  0
    2.7861   -4.6568   -5.7707 O   0  0  0  0  0  2           0  0  0
    1.7689   -1.6242   -7.3616 O   0  0  0  0  0  2           0  0  0
    4.1819   -4.0557   -8.1283 O   0  0  0  0  0  2           0  0  0
    3.9171   -1.1624   -3.5511 N   0  0  0  0  0  3           0  0  0
    3.2636   -3.7322   -4.8823 C   0  0  0  0  0  4           0  0  0
    3.2424   -1.0649   -4.7503 C   0  0  0  0  0  4           0  0  0
    2.2955   -2.5644   -6.5237 C   0  0  0  0  0  4           0  0  0
    2.1462   -3.9925   -6.8697 C   0  0  1  0  0  4           0  0  0
    2.8048   -4.4154   -8.1732 C   0  0  0  0  0  4           0  0  0
    4.3069   -0.0000   -2.7819 C   0  0  0  0  0  4           0  0  0
    2.9422   -2.3768   -5.3711 C   0  0  0  0  0  4           0  0  0
    3.6820   -0.0000   -1.3930 C   0  0  0  0  0  4           0  0  0
    2.1544    0.0000   -1.3930 C   0  0  0  0  0  4           0  0  0
    1.5276    0.0000   -0.0000 C   0  0  0  0  0  4           0  0  0
    0.0000    0.0000    0.0000 C   0  0  0  0  0  4           0  0  0
   -0.6268    0.0000    1.3930 C   0  0  0  0  0  4           0  0  0
   -2.1544   -0.0000    1.3930 C   0  0  0  0  0  4           0  0  0
   -2.7812    0.0000    2.7861 C   0  0  0  0  0  4           0  0  0
   -4.3088   -0.0000    2.7861 C   0  0  0  0  0  4           0  0  0
   -4.9356    0.0000    4.1791 C   0  0  0  0  0  4           0  0  0
   -6.4632   -0.0000    4.1791 C   0  0  0  0  0  4           0  0  0
   -7.0900    0.0000    5.5721 C   0  0  0  0  0  4           0  0  0
   -8.6176   -0.0000    5.5721 C   0  0  0  0  0  4           0  0  0
   -9.1903    0.0000    6.9841 C   0  0  0  0  0  4           0  0  0
  1  7  2  0     0  0
  2  8  2  0     0  0
  3  7  1  0     0  0
  3 10  1  0     0  0
  4  9  1  0     0  0
  5 11  1  0     0  0
  6  8  1  0     0  0
  6 12  1  0     0  0
  7 13  1  0     0  0
  8 13  1  0     0  0
  9 10  1  0     0  0
  9 13  2  0     0  0
 10 11  1  0     0  0
 12 14  1  0     0  0
 14 15  1  0     0  0
 15 16  1  0     0  0
 16 17  1  0     0  0
 17 18  1  0     0  0
 18 19  1  0     0  0
 19 20  1  0     0  0
 20 21  1  0     0  0
 21 22  1  0     0  0
 22 23  1  0     0  0
 23 24  1  0     0  0
 24 25  1  0     0  0
 25 26  1  0     0  0
M  END
> <standard_type>
IC50

> <# Confs.>
25

> <canonical_smiles>
OC([C@@H](CO)O1)=C(C(NCCCCCCCCCCCCCC)=O)C1=O

> <standard_relation>
=

> <predicted_activity_value>
4.619788758288394

> <actual_activity_value>
5.102372908709558

> <Compound>
14

> <publication_ID>
nan

> <standard_units>
nM

> hash
12394674710830410581

$$$$
14_
XXILIB    08252103493D 0   0.00000     0.00000

 26 26  0     1  0            999 V2000
    2.1014   -3.4455    4.7713 O   0  0  0  0  0  2           0  0  0
    5.6594   -1.2286    3.6251 O   0  0  0  0  0  2           0  0  0
    2.7031   -2.7993    6.8870 O   0  0  0  0  0  2           0  0  0
    5.6901   -0.8843    6.4717 O   0  0  0  0  0  2           0  0  0
    2.4025   -0.0545    7.3807 O   0  0  0  0  0  2           0  0  0
    3.9171   -2.4942    2.7822 N   0  0  0  0  0  3           0  0  0
    2.8536   -2.8563    5.5283 C   0  0  0  0  0  4           0  0  0
    4.6366   -1.8886    3.7914 C   0  0  0  0  0  4           0  0  0
    4.5633   -1.6319    6.2851 C   0  0  0  0  0  4           0  0  0
    3.7631   -2.0229    7.4633 C   0  0  1  0  0  4           0  0  0
    3.1740   -0.8684    8.2584 C   0  0  0  0  0  4           0  0  0
    4.3069   -2.4092    1.3909 C   0  0  0  0  0  4           0  0  0
    4.0614   -2.1010    5.1406 C   0  0  0  0  0  4           0  0  0
    3.6820   -1.2064    0.6965 C   0  0  0  0  0  4           0  0  0
    2.1544   -1.2064    0.6965 C   0  0  0  0  0  4           0  0  0
    1.5276   -0.0000    0.0000 C   0  0  0  0  0  4           0  0  0
    0.0000   -0.0000    0.0000 C   0  0  0  0  0  4           0  0  0
   -0.6268    0.0000    1.3930 C   0  0  0  0  0  4           0  0  0
   -0.2489    1.2064    2.2505 C   0  0  0  0  0  4           0  0  0
   -0.8757    1.2064    3.6435 C   0  0  0  0  0  4           0  0  0
   -0.4978    2.4128    4.5009 C   0  0  0  0  0  4           0  0  0
   -1.1246    2.4128    5.8940 C   0  0  0  0  0  4           0  0  0
   -0.7466    3.6192    6.7514 C   0  0  0  0  0  4           0  0  0
   -1.3735    3.6192    8.1444 C   0  0  0  0  0  4           0  0  0
   -0.9955    4.8256    9.0019 C   0  0  0  0  0  4           0  0  0
   -1.6464    4.7761   10.3787 C   0  0  0  0  0  4           0  0  0
  1  7  2  0     0  0
  2  8  2  0     0  0
  3  7  1  0     0  0
  3 10  1  0     0  0
  4  9  1  0     0  0
  5 11  1  0     0  0
  6  8  1  0     0  0
  6 12  1  0     0  0
  7 13  1  0     0  0
  8 13  1  0     0  0
  9 10  1  0     0  0
  9 13  2  0     0  0
 10 11  1  0     0  0
 12 14  1  0     0  0
 14 15  1  0     0  0
 15 16  1  0     0  0
 16 17  1  0     0  0
 17 18  1  0     0  0
 18 19  1  0     0  0
 19 20  1  0     0  0
 20 21  1  0     0  0
 21 22  1  0     0  0
 22 23  1  0     0  0
 23 24  1  0     0  0
 24 25  1  0     0  0
 25 26  1  0     0  0
M  END
> <standard_type>
IC50

> <# Confs.>
25

> <canonical_smiles>
OC([C@@H](CO)O1)=C(C(NCCCCCCCCCCCCCC)=O)C1=O

> <standard_relation>
=

> <predicted_activity_value>
4.619788758288394

> <actual_activity_value>
5.102372908709558

> <Compound>
14

> <publication_ID>
nan

> <standard_units>
nM

> hash
12394674710830410581

$$$$
14_
XXILIB    08252103493D 0   0.00000     0.00000

 26 26  0     1  0            999 V2000
    3.8560   -1.3345    5.3918 O   0  0  0  0  0  2           0  0  0
    2.9072   -4.5703    2.6500 O   0  0  0  0  0  2           0  0  0
    2.7861   -2.6692    6.9182 O   0  0  0  0  0  2           0  0  0
    1.7689   -5.5632    5.0874 O   0  0  0  0  0  2           0  0  0
    4.1819   -5.0115    7.5765 O   0  0  0  0  0  2           0  0  0
    3.9171   -2.4942    2.7822 N   0  0  0  0  0  3           0  0  0
    3.2636   -2.3621    5.6733 C   0  0  0  0  0  4           0  0  0
    3.2424   -3.5815    3.2974 C   0  0  0  0  0  4           0  0  0
    2.2955   -4.3675    5.4827 C   0  0  0  0  0  4           0  0  0
    2.1462   -3.9531    6.8924 C   0  0  1  0  0  4           0  0  0
    2.8048   -4.8705    7.9105 C   0  0  0  0  0  4           0  0  0
    4.3069   -2.4092    1.3909 C   0  0  0  0  0  4           0  0  0
    2.9422   -3.4631    4.7439 C   0  0  0  0  0  4           0  0  0
    3.6820   -1.2064    0.6965 C   0  0  0  0  0  4           0  0  0
    2.1544   -1.2064    0.6965 C   0  0  0  0  0  4           0  0  0
    1.5276   -0.0000    0.0000 C   0  0  0  0  0  4           0  0  0
   -0.0000    0.0000    0.0000 C   0  0  0  0  0  4           0  0  0
   -0.6268   -0.0000    1.3930 C   0  0  0  0  0  4           0  0  0
   -0.2489    1.2064    2.2505 C   0  0  0  0  0  4           0  0  0
   -0.8757    1.2064    3.6435 C   0  0  0  0  0  4           0  0  0
   -0.4978   -0.0000    4.5009 C   0  0  0  0  0  4           0  0  0
   -1.1246   -0.0000    5.8940 C   0  0  0  0  0  4           0  0  0
   -0.7466   -1.2064    6.7514 C   0  0  0  0  0  4           0  0  0
   -1.3735   -1.2064    8.1444 C   0  0  0  0  0  4           0  0  0
   -0.9955   -2.4128    9.0019 C   0  0  0  0  0  4           0  0  0
   -1.6464   -2.3633   10.3787 C   0  0  0  0  0  4           0  0  0
  1  7  2  0     0  0
  2  8  2  0     0  0
  3  7  1  0     0  0
  3 10  1  0     0  0
  4  9  1  0     0  0
  5 11  1  0     0  0
  6  8  1  0     0  0
  6 12  1  0     0  0
  7 13  1  0     0  0
  8 13  1  0     0  0
  9 10  1  0     0  0
  9 13  2  0     0  0
 10 11  1  0     0  0
 12 14  1  0     0  0
 14 15  1  0     0  0
 15 16  1  0     0  0
 16 17  1  0     0  0
 17 18  1  0     0  0
 18 19  1  0     0  0
 19 20  1  0     0  0
 20 21  1  0     0  0
 21 22  1  0     0  0
 22 23  1  0     0  0
 23 24  1  0     0  0
 24 25  1  0     0  0
 25 26  1  0     0  0
M  END
> <standard_type>
IC50

> <# Confs.>
25

> <canonical_smiles>
OC([C@@H](CO)O1)=C(C(NCCCCCCCCCCCCCC)=O)C1=O

> <standard_relation>
=

> <predicted_activity_value>
4.619788758288394

> <actual_activity_value>
5.102372908709558

> <Compound>
14

> <publication_ID>
nan

> <standard_units>
nM

> hash
12394674710830410581

$$$$
14_
XXILIB    08252103493D 0   0.00000     0.00000

 26 26  0     1  0            999 V2000
    2.1086    3.4563    4.7726 O   0  0  0  0  0  2           0  0  0
    5.6594    1.2286    3.6251 O   0  0  0  0  0  2           0  0  0
    2.6923    2.7831    6.8850 O   0  0  0  0  0  2           0  0  0
    5.6599    0.8389    6.4660 O   0  0  0  0  0  2           0  0  0
    5.0228    3.9906    7.8744 O   0  0  0  0  0  2           0  0  0
    3.9171    2.4942    2.7822 N   0  0  0  0  0  3           0  0  0
    2.8549    2.8583    5.5285 C   0  0  0  0  0  4           0  0  0
    4.6366    1.8886    3.7914 C   0  0  0  0  0  4           0  0  0
    4.5567    1.6219    6.2839 C   0  0  0  0  0  4           0  0  0
    3.7509    2.0046    7.4610 C   0  0  1  0  0  4           0  0  0
    4.4823    2.8337    8.5049 C   0  0  0  0  0  4           0  0  0
    4.3069    2.4092    1.3909 C   0  0  0  0  0  4           0  0  0
    4.0626    2.1028    5.1409 C   0  0  0  0  0  4           0  0  0
    3.6820    1.2064    0.6965 C   0  0  0  0  0  4           0  0  0
    2.1544    1.2064    0.6965 C   0  0  0  0  0  4           0  0  0
    1.5276    0.0000   -0.0000 C   0  0  0  0  0  4           0  0  0
    0.0000    0.0000    0.0000 C   0  0  0  0  0  4           0  0  0
   -0.6268    0.0000    1.3930 C   0  0  0  0  0  4           0  0  0
   -2.1544   -0.0000    1.3930 C   0  0  0  0  0  4           0  0  0
   -2.7812    0.0000    2.7861 C   0  0  0  0  0  4           0  0  0
   -4.3088   -0.0000    2.7861 C   0  0  0  0  0  4           0  0  0
   -4.9356    0.0000    4.1791 C   0  0  0  0  0  4           0  0  0
   -6.4632   -0.0000    4.1791 C   0  0  0  0  0  4           0  0  0
   -7.0900    0.0000    5.5721 C   0  0  0  0  0  4           0  0  0
   -8.6176   -0.0000    5.5721 C   0  0  0  0  0  4           0  0  0
   -9.1903    0.0000    6.9841 C   0  0  0  0  0  4           0  0  0
  1  7  2  0     0  0
  2  8  2  0     0  0
  3  7  1  0     0  0
  3 10  1  0     0  0
  4  9  1  0     0  0
  5 11  1  0     0  0
  6  8  1  0     0  0
  6 12  1  0     0  0
  7 13  1  0     0  0
  8 13  1  0     0  0
  9 10  1  0     0  0
  9 13  2  0     0  0
 10 11  1  0     0  0
 12 14  1  0     0  0
 14 15  1  0     0  0
 15 16  1  0     0  0
 16 17  1  0     0  0
 17 18  1  0     0  0
 18 19  1  0     0  0
 19 20  1  0     0  0
 20 21  1  0     0  0
 21 22  1  0     0  0
 22 23  1  0     0  0
 23 24  1  0     0  0
 24 25  1  0     0  0
 25 26  1  0     0  0
M  END
> <standard_type>
IC50

> <# Confs.>
25

> <canonical_smiles>
OC([C@@H](CO)O1)=C(C(NCCCCCCCCCCCCCC)=O)C1=O

> <standard_relation>
=

> <predicted_activity_value>
4.619788758288394

> <actual_activity_value>
5.102372908709558

> <Compound>
14

> <publication_ID>
nan

> <standard_units>
nM

> hash
12394674710830410581

$$$$
14_
XXILIB    08252103493D 0   0.00000     0.00000

 26 26  0     1  0            999 V2000
    3.8447    4.0026   -3.8453 O   0  0  0  0  0  2           0  0  0
    2.9072    0.0098   -5.2830 O   0  0  0  0  0  2           0  0  0
    2.8032    4.6562   -5.7803 O   0  0  0  0  0  2           0  0  0
    1.8167    1.6225   -7.3883 O   0  0  0  0  0  2           0  0  0
    0.0354    4.2012   -5.8072 O   0  0  0  0  0  2           0  0  0
    3.9171    1.1624   -3.5511 N   0  0  0  0  0  3           0  0  0
    3.2615    3.7323   -4.8811 C   0  0  0  0  0  4           0  0  0
    3.2424    1.0649   -4.7503 C   0  0  0  0  0  4           0  0  0
    2.3060    2.5640   -6.5296 C   0  0  0  0  0  4           0  0  0
    2.1654    3.9918   -6.8805 C   0  0  1  0  0  4           0  0  0
    0.7345    4.4881   -7.0143 C   0  0  0  0  0  4           0  0  0
    4.3069    0.0000   -2.7819 C   0  0  0  0  0  4           0  0  0
    2.9404    2.3768   -5.3701 C   0  0  0  0  0  4           0  0  0
    3.6820   -0.0000   -1.3930 C   0  0  0  0  0  4           0  0  0
    2.1544    0.0000   -1.3930 C   0  0  0  0  0  4           0  0  0
    1.5276    0.0000   -0.0000 C   0  0  0  0  0  4           0  0  0
    0.0000    0.0000    0.0000 C   0  0  0  0  0  4           0  0  0
   -0.6268    0.0000    1.3930 C   0  0  0  0  0  4           0  0  0
   -2.1544   -0.0000    1.3930 C   0  0  0  0  0  4           0  0  0
   -2.7812    0.0000    2.7861 C   0  0  0  0  0  4           0  0  0
   -4.3088   -0.0000    2.7861 C   0  0  0  0  0  4           0  0  0
   -4.9356    0.0000    4.1791 C   0  0  0  0  0  4           0  0  0
   -6.4632   -0.0000    4.1791 C   0  0  0  0  0  4           0  0  0
   -7.0900    0.0000    5.5721 C   0  0  0  0  0  4           0  0  0
   -8.6176   -0.0000    5.5721 C   0  0  0  0  0  4           0  0  0
   -9.1903    0.0000    6.9841 C   0  0  0  0  0  4           0  0  0
  1  7  2  0     0  0
  2  8  2  0     0  0
  3  7  1  0     0  0
  3 10  1  0     0  0
  4  9  1  0     0  0
  5 11  1  0     0  0
  6  8  1  0     0  0
  6 12  1  0     0  0
  7 13  1  0     0  0
  8 13  1  0     0  0
  9 10  1  0     0  0
  9 13  2  0     0  0
 10 11  1  0     0  0
 12 14  1  0     0  0
 14 15  1  0     0  0
 15 16  1  0     0  0
 16 17  1  0     0  0
 17 18  1  0     0  0
 18 19  1  0     0  0
 19 20  1  0     0  0
 20 21  1  0     0  0
 21 22  1  0     0  0
 22 23  1  0     0  0
 23 24  1  0     0  0
 24 25  1  0     0  0
 25 26  1  0     0  0
M  END
> <standard_type>
IC50

> <# Confs.>
25

> <canonical_smiles>
OC([C@@H](CO)O1)=C(C(NCCCCCCCCCCCCCC)=O)C1=O

> <standard_relation>
=

> <predicted_activity_value>
4.619788758288394

> <actual_activity_value>
5.102372908709558

> <Compound>
14

> <publication_ID>
nan

> <standard_units>
nM

> hash
12394674710830410581

$$$$
14_
XXILIB    08252103493D 0   0.00000     0.00000

 26 26  0     1  0            999 V2000
    2.1014   -3.4455    4.7713 O   0  0  0  0  0  2           0  0  0
    5.6594   -1.2286    3.6251 O   0  0  0  0  0  2           0  0  0
    2.7031   -2.7993    6.8870 O   0  0  0  0  0  2           0  0  0
    5.6901   -0.8843    6.4717 O   0  0  0  0  0  2           0  0  0
    2.4025   -0.0545    7.3807 O   0  0  0  0  0  2           0  0  0
    3.9171   -2.4942    2.7822 N   0  0  0  0  0  3           0  0  0
    2.8536   -2.8563    5.5283 C   0  0  0  0  0  4           0  0  0
    4.6366   -1.8886    3.7914 C   0  0  0  0  0  4           0  0  0
    4.5633   -1.6319    6.2851 C   0  0  0  0  0  4           0  0  0
    3.7631   -2.0229    7.4633 C   0  0  1  0  0  4           0  0  0
    3.1740   -0.8684    8.2584 C   0  0  0  0  0  4           0  0  0
    4.3069   -2.4092    1.3909 C   0  0  0  0  0  4           0  0  0
    4.0614   -2.1010    5.1406 C   0  0  0  0  0  4           0  0  0
    3.6820   -1.2064    0.6965 C   0  0  0  0  0  4           0  0  0
    2.1544   -1.2064    0.6965 C   0  0  0  0  0  4           0  0  0
    1.5276   -0.0000    0.0000 C   0  0  0  0  0  4           0  0  0
    0.0000    0.0000    0.0000 C   0  0  0  0  0  4           0  0  0
   -0.6268    0.0000    1.3930 C   0  0  0  0  0  4           0  0  0
   -2.1544   -0.0000    1.3930 C   0  0  0  0  0  4           0  0  0
   -2.7812    0.0000    2.7861 C   0  0  0  0  0  4           0  0  0
   -4.3088   -0.0000    2.7861 C   0  0  0  0  0  4           0  0  0
   -4.9356    0.0000    4.1791 C   0  0  0  0  0  4           0  0  0
   -6.4632   -0.0000    4.1791 C   0  0  0  0  0  4           0  0  0
   -7.0900    0.0000    5.5721 C   0  0  0  0  0  4           0  0  0
   -8.6176   -0.0000    5.5721 C   0  0  0  0  0  4           0  0  0
   -9.1903    0.0000    6.9841 C   0  0  0  0  0  4           0  0  0
  1  7  2  0     0  0
  2  8  2  0     0  0
  3  7  1  0     0  0
  3 10  1  0     0  0
  4  9  1  0     0  0
  5 11  1  0     0  0
  6  8  1  0     0  0
  6 12  1  0     0  0
  7 13  1  0     0  0
  8 13  1  0     0  0
  9 10  1  0     0  0
  9 13  2  0     0  0
 10 11  1  0     0  0
 12 14  1  0     0  0
 14 15  1  0     0  0
 15 16  1  0     0  0
 16 17  1  0     0  0
 17 18  1  0     0  0
 18 19  1  0     0  0
 19 20  1  0     0  0
 20 21  1  0     0  0
 21 22  1  0     0  0
 22 23  1  0     0  0
 23 24  1  0     0  0
 24 25  1  0     0  0
 25 26  1  0     0  0
M  END
> <standard_type>
IC50

> <# Confs.>
25

> <canonical_smiles>
OC([C@@H](CO)O1)=C(C(NCCCCCCCCCCCCCC)=O)C1=O

> <standard_relation>
=

> <predicted_activity_value>
4.619788758288394

> <actual_activity_value>
5.102372908709558

> <Compound>
14

> <publication_ID>
nan

> <standard_units>
nM

> hash
12394674710830410581

$$$$
14_
XXILIB    08252103493D 0   0.00000     0.00000

 26 26  0     1  0            999 V2000
    2.1086    2.4051   -5.3796 O   0  0  0  0  0  2           0  0  0
    5.6594    2.5252   -2.8766 O   0  0  0  0  0  2           0  0  0
    2.6923    4.5710   -5.8527 O   0  0  0  0  0  2           0  0  0
    5.6599    5.1803   -3.9595 O   0  0  0  0  0  2           0  0  0
    5.0228    4.8242   -7.3931 O   0  0  0  0  0  2           0  0  0
    3.9171    1.1624   -3.5511 N   0  0  0  0  0  3           0  0  0
    2.8549    3.3587   -5.2396 C   0  0  0  0  0  4           0  0  0
    4.6366    2.3392   -3.5313 C   0  0  0  0  0  4           0  0  0
    4.5567    4.6310   -4.5466 C   0  0  0  0  0  4           0  0  0
    3.7509    5.4591   -5.4666 C   0  0  1  0  0  4           0  0  0
    4.4823    5.9486   -6.7065 C   0  0  0  0  0  4           0  0  0
    4.3069    0.0000   -2.7819 C   0  0  0  0  0  4           0  0  0
    4.0626    3.4007   -4.3915 C   0  0  0  0  0  4           0  0  0
    3.6820   -0.0000   -1.3930 C   0  0  0  0  0  4           0  0  0
    2.1544    0.0000   -1.3930 C   0  0  0  0  0  4           0  0  0
    1.5276   -0.0000    0.0000 C   0  0  0  0  0  4           0  0  0
    0.0000    0.0000    0.0000 C   0  0  0  0  0  4           0  0  0
   -0.6268    0.0000    1.3930 C   0  0  0  0  0  4           0  0  0
   -2.1544   -0.0000    1.3930 C   0  0  0  0  0  4           0  0  0
   -2.7812    0.0000    2.7861 C   0  0  0  0  0  4           0  0  0
   -4.3088   -0.0000    2.7861 C   0  0  0  0  0  4           0  0  0
   -4.9356    0.0000    4.1791 C   0  0  0  0  0  4           0  0  0
   -6.4632   -0.0000    4.1791 C   0  0  0  0  0  4           0  0  0
   -7.0900    0.0000    5.5721 C   0  0  0  0  0  4           0  0  0
   -6.7121    1.2064    6.4296 C   0  0  0  0  0  4           0  0  0
   -7.3629    1.1569    7.8064 C   0  0  0  0  0  4           0  0  0
  1  7  2  0     0  0
  2  8  2  0     0  0
  3  7  1  0     0  0
  3 10  1  0     0  0
  4  9  1  0     0  0
  5 11  1  0     0  0
  6  8  1  0     0  0
  6 12  1  0     0  0
  7 13  1  0     0  0
  8 13  1  0     0  0
  9 10  1  0     0  0
  9 13  2  0     0  0
 10 11  1  0     0  0
 12 14  1  0     0  0
 14 15  1  0     0  0
 15 16  1  0     0  0
 16 17  1  0     0  0
 17 18  1  0     0  0
 18 19  1  0     0  0
 19 20  1  0     0  0
 20 21  1  0     0  0
 21 22  1  0     0  0
 22 23  1  0     0  0
 23 24  1  0     0  0
 24 25  1  0     0  0
 25 26  1  0     0  0
M  END
> <standard_type>
IC50

> <# Confs.>
25

> <canonical_smiles>
OC([C@@H](CO)O1)=C(C(NCCCCCCCCCCCCCC)=O)C1=O

> <standard_relation>
=

> <predicted_activity_value>
4.619788758288394

> <actual_activity_value>
5.102372908709558

> <Compound>
14

> <publication_ID>
nan

> <standard_units>
nM

> hash
12394674710830410581

$$$$
14_
XXILIB    08252103493D 0   0.00000     0.00000

 26 26  0     1  0            999 V2000
    2.5040   -2.6554   -5.2016 O   0  0  0  0  0  2           0  0  0
    0.1256    0.9783   -5.3666 O   0  0  0  0  0  2           0  0  0
    0.9146   -3.4456   -6.6526 O   0  0  0  0  0  2           0  0  0
   -1.3635   -0.7337   -7.1199 O   0  0  0  0  0  2           0  0  0
    1.0027   -2.2790   -9.2021 O   0  0  0  0  0  2           0  0  0
    2.0116    0.0440   -4.4085 N   0  0  0  0  0  3           0  0  0
    1.4876   -2.4931   -5.8548 C   0  0  0  0  0  4           0  0  0
    0.8931    0.0309   -5.2158 C   0  0  0  0  0  4           0  0  0
   -0.3273   -1.5390   -6.7442 C   0  0  0  0  0  4           0  0  0
   -0.2655   -2.9163   -7.2738 C   0  0  1  0  0  4           0  0  0
   -0.1370   -3.0241   -8.7851 C   0  0  0  0  0  4           0  0  0
    2.4014    1.2064   -3.6393 C   0  0  0  0  0  4           0  0  0
    0.6796   -1.2590   -5.9137 C   0  0  0  0  0  4           0  0  0
    1.7764    1.2064   -2.2505 C   0  0  0  0  0  4           0  0  0
    2.1544    0.0000   -1.3930 C   0  0  0  0  0  4           0  0  0
    1.5276    0.0000   -0.0000 C   0  0  0  0  0  4           0  0  0
    0.0000    0.0000    0.0000 C   0  0  0  0  0  4           0  0  0
   -0.6268    0.0000    1.3930 C   0  0  0  0  0  4           0  0  0
   -2.1544   -0.0000    1.3930 C   0  0  0  0  0  4           0  0  0
   -2.7812    0.0000    2.7861 C   0  0  0  0  0  4           0  0  0
   -4.3088   -0.0000    2.7861 C   0  0  0  0  0  4           0  0  0
   -4.9356    0.0000    4.1791 C   0  0  0  0  0  4           0  0  0
   -6.4632   -0.0000    4.1791 C   0  0  0  0  0  4           0  0  0
   -7.0900    0.0000    5.5721 C   0  0  0  0  0  4           0  0  0
   -8.6176   -0.0000    5.5721 C   0  0  0  0  0  4           0  0  0
   -9.1903    0.0000    6.9841 C   0  0  0  0  0  4           0  0  0
  1  7  2  0     0  0
  2  8  2  0     0  0
  3  7  1  0     0  0
  3 10  1  0     0  0
  4  9  1  0     0  0
  5 11  1  0     0  0
  6  8  1  0     0  0
  6 12  1  0     0  0
  7 13  1  0     0  0
  8 13  1  0     0  0
  9 10  1  0     0  0
  9 13  2  0     0  0
 10 11  1  0     0  0
 12 14  1  0     0  0
 14 15  1  0     0  0
 15 16  1  0     0  0
 16 17  1  0     0  0
 17 18  1  0     0  0
 18 19  1  0     0  0
 19 20  1  0     0  0
 20 21  1  0     0  0
 21 22  1  0     0  0
 22 23  1  0     0  0
 23 24  1  0     0  0
 24 25  1  0     0  0
 25 26  1  0     0  0
M  END
> <standard_type>
IC50

> <# Confs.>
25

> <canonical_smiles>
OC([C@@H](CO)O1)=C(C(NCCCCCCCCCCCCCC)=O)C1=O

> <standard_relation>
=

> <predicted_activity_value>
4.619788758288394

> <actual_activity_value>
5.102372908709558

> <Compound>
14

> <publication_ID>
nan

> <standard_units>
nM

> hash
12394674710830410581

$$$$
14_
XXILIB    08252103493D 0   0.00000     0.00000

 26 26  0     1  0            999 V2000
    2.5040   -3.1770    4.9005 O   0  0  0  0  0  2           0  0  0
    0.1256   -5.1368    1.8361 O   0  0  0  0  0  2           0  0  0
    0.9146   -4.0385    6.3102 O   0  0  0  0  0  2           0  0  0
   -1.3635   -5.7991    4.1954 O   0  0  0  0  0  2           0  0  0
    1.0027   -6.8297    6.5747 O   0  0  0  0  0  2           0  0  0
    2.0116   -3.8399    2.1661 N   0  0  0  0  0  3           0  0  0
    1.4876   -3.8239    5.0865 C   0  0  0  0  0  4           0  0  0
    0.8931   -4.5325    2.5812 C   0  0  0  0  0  4           0  0  0
   -0.3273   -5.0712    4.7049 C   0  0  0  0  0  4           0  0  0
   -0.2655   -4.8412    6.1625 C   0  0  1  0  0  4           0  0  0
   -0.1370   -6.0961    7.0115 C   0  0  0  0  0  4           0  0  0
    2.4014   -3.7550    0.7749 C   0  0  0  0  0  4           0  0  0
    0.6796   -4.4920    4.0472 C   0  0  0  0  0  4           0  0  0
    1.7764   -2.5522    0.0805 C   0  0  0  0  0  4           0  0  0
    2.1544   -1.2064    0.6965 C   0  0  0  0  0  4           0  0  0
    1.5276   -0.0000   -0.0000 C   0  0  0  0  0  4           0  0  0
    0.0000    0.0000    0.0000 C   0  0  0  0  0  4           0  0  0
   -0.6268    0.0000    1.3930 C   0  0  0  0  0  4           0  0  0
   -2.1544   -0.0000    1.3930 C   0  0  0  0  0  4           0  0  0
   -2.7812    0.0000    2.7861 C   0  0  0  0  0  4           0  0  0
   -4.3088   -0.0000    2.7861 C   0  0  0  0  0  4           0  0  0
   -4.9356    0.0000    4.1791 C   0  0  0  0  0  4           0  0  0
   -6.4632   -0.0000    4.1791 C   0  0  0  0  0  4           0  0  0
   -7.0900    0.0000    5.5721 C   0  0  0  0  0  4           0  0  0
   -8.6176   -0.0000    5.5721 C   0  0  0  0  0  4           0  0  0
   -9.1903    0.0000    6.9841 C   0  0  0  0  0  4           0  0  0
  1  7  2  0     0  0
  2  8  2  0     0  0
  3  7  1  0     0  0
  3 10  1  0     0  0
  4  9  1  0     0  0
  5 11  1  0     0  0
  6  8  1  0     0  0
  6 12  1  0     0  0
  7 13  1  0     0  0
  8 13  1  0     0  0
  9 10  1  0     0  0
  9 13  2  0     0  0
 10 11  1  0     0  0
 12 14  1  0     0  0
 14 15  1  0     0  0
 15 16  1  0     0  0
 16 17  1  0     0  0
 17 18  1  0     0  0
 18 19  1  0     0  0
 19 20  1  0     0  0
 20 21  1  0     0  0
 21 22  1  0     0  0
 22 23  1  0     0  0
 23 24  1  0     0  0
 24 25  1  0     0  0
 25 26  1  0     0  0
M  END
> <standard_type>
IC50

> <# Confs.>
25

> <canonical_smiles>
OC([C@@H](CO)O1)=C(C(NCCCCCCCCCCCCCC)=O)C1=O

> <standard_relation>
=

> <predicted_activity_value>
4.619788758288394

> <actual_activity_value>
5.102372908709558

> <Compound>
14

> <publication_ID>
nan

> <standard_units>
nM

> hash
12394674710830410581

$$$$
14_
XXILIB    08252103493D 0   0.00000     0.00000

 26 26  0     1  0            999 V2000
    2.4968    2.6596   -5.1916 O   0  0  0  0  0  2           0  0  0
    0.1256   -0.9783   -5.3666 O   0  0  0  0  0  2           0  0  0
    0.9254    3.4392   -6.6677 O   0  0  0  0  0  2           0  0  0
   -1.3333    0.7160   -7.1620 O   0  0  0  0  0  2           0  0  0
   -1.6175    3.8195   -5.5465 O   0  0  0  0  0  2           0  0  0
    2.0116   -0.0440   -4.4085 N   0  0  0  0  0  3           0  0  0
    1.4863    2.4939   -5.8530 C   0  0  0  0  0  4           0  0  0
    0.8931   -0.0309   -5.2158 C   0  0  0  0  0  4           0  0  0
   -0.3206    1.5351   -6.7535 C   0  0  0  0  0  4           0  0  0
   -0.2533    2.9092   -7.2908 C   0  0  1  0  0  4           0  0  0
   -1.4453    3.7932   -6.9598 C   0  0  0  0  0  4           0  0  0
    2.4014   -1.2064   -3.6393 C   0  0  0  0  0  4           0  0  0
    0.6784    1.2596   -5.9121 C   0  0  0  0  0  4           0  0  0
    1.7764   -1.2064   -2.2505 C   0  0  0  0  0  4           0  0  0
    2.1544    0.0000   -1.3930 C   0  0  0  0  0  4           0  0  0
    1.5276   -0.0000    0.0000 C   0  0  0  0  0  4           0  0  0
    0.0000    0.0000    0.0000 C   0  0  0  0  0  4           0  0  0
   -0.6268    0.0000    1.3930 C   0  0  0  0  0  4           0  0  0
   -2.1544   -0.0000    1.3930 C   0  0  0  0  0  4           0  0  0
   -2.7812    0.0000    2.7861 C   0  0  0  0  0  4           0  0  0
   -4.3088   -0.0000    2.7861 C   0  0  0  0  0  4           0  0  0
   -4.9356    0.0000    4.1791 C   0  0  0  0  0  4           0  0  0
   -6.4632   -0.0000    4.1791 C   0  0  0  0  0  4           0  0  0
   -7.0900    0.0000    5.5721 C   0  0  0  0  0  4           0  0  0
   -8.6176   -0.0000    5.5721 C   0  0  0  0  0  4           0  0  0
   -9.1903    0.0000    6.9841 C   0  0  0  0  0  4           0  0  0
  1  7  2  0     0  0
  2  8  2  0     0  0
  3  7  1  0     0  0
  3 10  1  0     0  0
  4  9  1  0     0  0
  5 11  1  0     0  0
  6  8  1  0     0  0
  6 12  1  0     0  0
  7 13  1  0     0  0
  8 13  1  0     0  0
  9 10  1  0     0  0
  9 13  2  0     0  0
 10 11  1  0     0  0
 12 14  1  0     0  0
 14 15  1  0     0  0
 15 16  1  0     0  0
 16 17  1  0     0  0
 17 18  1  0     0  0
 18 19  1  0     0  0
 19 20  1  0     0  0
 20 21  1  0     0  0
 21 22  1  0     0  0
 22 23  1  0     0  0
 23 24  1  0     0  0
 24 25  1  0     0  0
 25 26  1  0     0  0
M  END
> <standard_type>
IC50

> <# Confs.>
25

> <canonical_smiles>
OC([C@@H](CO)O1)=C(C(NCCCCCCCCCCCCCC)=O)C1=O

> <standard_relation>
=

> <predicted_activity_value>
4.619788758288394

> <actual_activity_value>
5.102372908709558

> <Compound>
14

> <publication_ID>
nan

> <standard_units>
nM

> hash
12394674710830410581

$$$$
14_
XXILIB    08252103493D 0   0.00000     0.00000

 26 26  0     1  0            999 V2000
    2.1014   -2.4093   -5.3696 O   0  0  0  0  0  2           0  0  0
    5.6594   -2.5252   -2.8766 O   0  0  0  0  0  2           0  0  0
    2.7031   -4.5647   -5.8678 O   0  0  0  0  0  2           0  0  0
    5.6901   -5.1625   -4.0016 O   0  0  0  0  0  2           0  0  0
    2.4025   -6.3646   -3.7376 O   0  0  0  0  0  2           0  0  0
    3.9171   -1.1624   -3.5511 N   0  0  0  0  0  3           0  0  0
    2.8536   -3.3595   -5.2377 C   0  0  0  0  0  4           0  0  0
    4.6366   -2.3392   -3.5313 C   0  0  0  0  0  4           0  0  0
    4.5633   -4.6271   -4.5558 C   0  0  0  0  0  4           0  0  0
    3.7631   -5.4520   -5.4836 C   0  0  1  0  0  4           0  0  0
    3.1740   -6.7177   -4.8813 C   0  0  0  0  0  4           0  0  0
    4.3069    0.0000   -2.7819 C   0  0  0  0  0  4           0  0  0
    4.0614   -3.4014   -4.3899 C   0  0  0  0  0  4           0  0  0
    3.6820   -0.0000   -1.3930 C   0  0  0  0  0  4           0  0  0
    2.1544    0.0000   -1.3930 C   0  0  0  0  0  4           0  0  0
    1.5276    0.0000   -0.0000 C   0  0  0  0  0  4           0  0  0
    0.0000    0.0000    0.0000 C   0  0  0  0  0  4           0  0  0
   -0.6268    0.0000    1.3930 C   0  0  0  0  0  4           0  0  0
   -2.1544   -0.0000    1.3930 C   0  0  0  0  0  4           0  0  0
   -2.7812    0.0000    2.7861 C   0  0  0  0  0  4           0  0  0
   -4.3088   -0.0000    2.7861 C   0  0  0  0  0  4           0  0  0
   -4.9356    0.0000    4.1791 C   0  0  0  0  0  4           0  0  0
   -6.4632   -0.0000    4.1791 C   0  0  0  0  0  4           0  0  0
   -7.0900    0.0000    5.5721 C   0  0  0  0  0  4           0  0  0
   -6.7121    1.2064    6.4296 C   0  0  0  0  0  4           0  0  0
   -7.3629    1.1569    7.8064 C   0  0  0  0  0  4           0  0  0
  1  7  2  0     0  0
  2  8  2  0     0  0
  3  7  1  0     0  0
  3 10  1  0     0  0
  4  9  1  0     0  0
  5 11  1  0     0  0
  6  8  1  0     0  0
  6 12  1  0     0  0
  7 13  1  0     0  0
  8 13  1  0     0  0
  9 10  1  0     0  0
  9 13  2  0     0  0
 10 11  1  0     0  0
 12 14  1  0     0  0
 14 15  1  0     0  0
 15 16  1  0     0  0
 16 17  1  0     0  0
 17 18  1  0     0  0
 18 19  1  0     0  0
 19 20  1  0     0  0
 20 21  1  0     0  0
 21 22  1  0     0  0
 22 23  1  0     0  0
 23 24  1  0     0  0
 24 25  1  0     0  0
 25 26  1  0     0  0
M  END
> <standard_type>
IC50

> <# Confs.>
25

> <canonical_smiles>
OC([C@@H](CO)O1)=C(C(NCCCCCCCCCCCCCC)=O)C1=O

> <standard_relation>
=

> <predicted_activity_value>
4.619788758288394

> <actual_activity_value>
5.102372908709558

> <Compound>
14

> <publication_ID>
nan

> <standard_units>
nM

> hash
12394674710830410581

$$$$
14_
XXILIB    08252103493D 0   0.00000     0.00000

 26 26  0     1  0            999 V2000
    2.1086    2.4051   -5.3796 O   0  0  0  0  0  2           0  0  0
    5.6594    2.5252   -2.8766 O   0  0  0  0  0  2           0  0  0
    2.6923    4.5710   -5.8527 O   0  0  0  0  0  2           0  0  0
    5.6599    5.1803   -3.9595 O   0  0  0  0  0  2           0  0  0
    5.0228    4.8242   -7.3931 O   0  0  0  0  0  2           0  0  0
    3.9171    1.1624   -3.5511 N   0  0  0  0  0  3           0  0  0
    2.8549    3.3587   -5.2396 C   0  0  0  0  0  4           0  0  0
    4.6366    2.3392   -3.5313 C   0  0  0  0  0  4           0  0  0
    4.5567    4.6310   -4.5466 C   0  0  0  0  0  4           0  0  0
    3.7509    5.4591   -5.4666 C   0  0  1  0  0  4           0  0  0
    4.4823    5.9486   -6.7065 C   0  0  0  0  0  4           0  0  0
    4.3069    0.0000   -2.7819 C   0  0  0  0  0  4           0  0  0
    4.0626    3.4007   -4.3915 C   0  0  0  0  0  4           0  0  0
    3.6820   -0.0000   -1.3930 C   0  0  0  0  0  4           0  0  0
    2.1544    0.0000   -1.3930 C   0  0  0  0  0  4           0  0  0
    1.5276   -0.0000    0.0000 C   0  0  0  0  0  4           0  0  0
    0.0000    0.0000   -0.0000 C   0  0  0  0  0  4           0  0  0
   -0.6268    0.0000    1.3930 C   0  0  0  0  0  4           0  0  0
   -2.1544    0.0000    1.3930 C   0  0  0  0  0  4           0  0  0
   -2.7812    1.2064    0.6965 C   0  0  0  0  0  4           0  0  0
   -4.3088    1.2064    0.6965 C   0  0  0  0  0  4           0  0  0
   -4.9356    2.4128   -0.0000 C   0  0  0  0  0  4           0  0  0
   -6.4632    2.4128    0.0000 C   0  0  0  0  0  4           0  0  0
   -7.0900    3.6192   -0.6965 C   0  0  0  0  0  4           0  0  0
   -8.6176    3.6192   -0.6965 C   0  0  0  0  0  4           0  0  0
   -9.1903    4.8420   -1.4025 C   0  0  0  0  0  4           0  0  0
  1  7  2  0     0  0
  2  8  2  0     0  0
  3  7  1  0     0  0
  3 10  1  0     0  0
  4  9  1  0     0  0
  5 11  1  0     0  0
  6  8  1  0     0  0
  6 12  1  0     0  0
  7 13  1  0     0  0
  8 13  1  0     0  0
  9 10  1  0     0  0
  9 13  2  0     0  0
 10 11  1  0     0  0
 12 14  1  0     0  0
 14 15  1  0     0  0
 15 16  1  0     0  0
 16 17  1  0     0  0
 17 18  1  0     0  0
 18 19  1  0     0  0
 19 20  1  0     0  0
 20 21  1  0     0  0
 21 22  1  0     0  0
 22 23  1  0     0  0
 23 24  1  0     0  0
 24 25  1  0     0  0
 25 26  1  0     0  0
M  END
> <standard_type>
IC50

> <# Confs.>
25

> <canonical_smiles>
OC([C@@H](CO)O1)=C(C(NCCCCCCCCCCCCCC)=O)C1=O

> <standard_relation>
=

> <predicted_activity_value>
4.619788758288394

> <actual_activity_value>
5.102372908709558

> <Compound>
14

> <publication_ID>
nan

> <standard_units>
nM

> hash
12394674710830410581

$$$$
14_
XXILIB    08252103493D 0   0.00000     0.00000

 26 26  0     1  0            999 V2000
    2.1086   -5.8614    0.6069 O   0  0  0  0  0  2           0  0  0
    5.6594   -3.7538   -0.7486 O   0  0  0  0  0  2           0  0  0
    2.6923   -7.3541   -1.0323 O   0  0  0  0  0  2           0  0  0
    5.6599   -6.0192   -2.5065 O   0  0  0  0  0  2           0  0  0
    5.0228   -8.8147   -0.4813 O   0  0  0  0  0  2           0  0  0
    3.9171   -3.6565    0.7689 N   0  0  0  0  0  3           0  0  0
    2.8549   -6.2170   -0.2889 C   0  0  0  0  0  4           0  0  0
    4.6366   -4.2278   -0.2601 C   0  0  0  0  0  4           0  0  0
    4.5567   -6.2530   -1.7373 C   0  0  0  0  0  4           0  0  0
    3.7509   -7.4637   -1.9945 C   0  0  1  0  0  4           0  0  0
    4.4823   -8.7823   -1.7984 C   0  0  0  0  0  4           0  0  0
    4.3069   -2.4092    1.3909 C   0  0  0  0  0  4           0  0  0
    4.0626   -5.5035   -0.7494 C   0  0  0  0  0  4           0  0  0
    3.6820   -1.2064    0.6965 C   0  0  0  0  0  4           0  0  0
    2.1544   -1.2064    0.6965 C   0  0  0  0  0  4           0  0  0
    1.5276    0.0000    0.0000 C   0  0  0  0  0  4           0  0  0
    0.0000    0.0000    0.0000 C   0  0  0  0  0  4           0  0  0
   -0.6268    0.0000    1.3930 C   0  0  0  0  0  4           0  0  0
   -2.1544   -0.0000    1.3930 C   0  0  0  0  0  4           0  0  0
   -2.7812    0.0000    2.7861 C   0  0  0  0  0  4           0  0  0
   -4.3088   -0.0000    2.7861 C   0  0  0  0  0  4           0  0  0
   -4.9356    0.0000    4.1791 C   0  0  0  0  0  4           0  0  0
   -6.4632   -0.0000    4.1791 C   0  0  0  0  0  4           0  0  0
   -7.0900    0.0000    5.5721 C   0  0  0  0  0  4           0  0  0
   -8.6176   -0.0000    5.5721 C   0  0  0  0  0  4           0  0  0
   -9.1903    0.0000    6.9841 C   0  0  0  0  0  4           0  0  0
  1  7  2  0     0  0
  2  8  2  0     0  0
  3  7  1  0     0  0
  3 10  1  0     0  0
  4  9  1  0     0  0
  5 11  1  0     0  0
  6  8  1  0     0  0
  6 12  1  0     0  0
  7 13  1  0     0  0
  8 13  1  0     0  0
  9 10  1  0     0  0
  9 13  2  0     0  0
 10 11  1  0     0  0
 12 14  1  0     0  0
 14 15  1  0     0  0
 15 16  1  0     0  0
 16 17  1  0     0  0
 17 18  1  0     0  0
 18 19  1  0     0  0
 19 20  1  0     0  0
 20 21  1  0     0  0
 21 22  1  0     0  0
 22 23  1  0     0  0
 23 24  1  0     0  0
 24 25  1  0     0  0
 25 26  1  0     0  0
M  END
> <standard_type>
IC50

> <# Confs.>
25

> <canonical_smiles>
OC([C@@H](CO)O1)=C(C(NCCCCCCCCCCCCCC)=O)C1=O

> <standard_relation>
=

> <predicted_activity_value>
4.619788758288394

> <actual_activity_value>
5.102372908709558

> <Compound>
14

> <publication_ID>
nan

> <standard_units>
nM

> hash
12394674710830410581

$$$$
14_
XXILIB    08252103493D 0   0.00000     0.00000

 26 26  0     1  0            999 V2000
    2.1086    2.4051   -5.3796 O   0  0  0  0  0  2           0  0  0
    5.6594    2.5252   -2.8766 O   0  0  0  0  0  2           0  0  0
    2.6923    4.5710   -5.8527 O   0  0  0  0  0  2           0  0  0
    5.6599    5.1803   -3.9595 O   0  0  0  0  0  2           0  0  0
    5.0228    4.8242   -7.3931 O   0  0  0  0  0  2           0  0  0
    3.9171    1.1624   -3.5511 N   0  0  0  0  0  3           0  0  0
    2.8549    3.3587   -5.2396 C   0  0  0  0  0  4           0  0  0
    4.6366    2.3392   -3.5313 C   0  0  0  0  0  4           0  0  0
    4.5567    4.6310   -4.5466 C   0  0  0  0  0  4           0  0  0
    3.7509    5.4591   -5.4666 C   0  0  1  0  0  4           0  0  0
    4.4823    5.9486   -6.7065 C   0  0  0  0  0  4           0  0  0
    4.3069    0.0000   -2.7819 C   0  0  0  0  0  4           0  0  0
    4.0626    3.4007   -4.3915 C   0  0  0  0  0  4           0  0  0
    3.6820   -0.0000   -1.3930 C   0  0  0  0  0  4           0  0  0
    2.1544    0.0000   -1.3930 C   0  0  0  0  0  4           0  0  0
    1.5276   -0.0000    0.0000 C   0  0  0  0  0  4           0  0  0
    0.0000    0.0000   -0.0000 C   0  0  0  0  0  4           0  0  0
   -0.6268    0.0000    1.3930 C   0  0  0  0  0  4           0  0  0
   -2.1544    0.0000    1.3930 C   0  0  0  0  0  4           0  0  0
   -2.7812    0.0000    2.7861 C   0  0  0  0  0  4           0  0  0
   -4.3088    0.0000    2.7861 C   0  0  0  0  0  4           0  0  0
   -4.9356    1.2064    2.0895 C   0  0  0  0  0  4           0  0  0
   -6.4632    1.2064    2.0895 C   0  0  0  0  0  4           0  0  0
   -7.0900    2.4128    1.3930 C   0  0  0  0  0  4           0  0  0
   -8.6176    2.4128    1.3930 C   0  0  0  0  0  4           0  0  0
   -9.1903    3.6356    0.6870 C   0  0  0  0  0  4           0  0  0
  1  7  2  0     0  0
  2  8  2  0     0  0
  3  7  1  0     0  0
  3 10  1  0     0  0
  4  9  1  0     0  0
  5 11  1  0     0  0
  6  8  1  0     0  0
  6 12  1  0     0  0
  7 13  1  0     0  0
  8 13  1  0     0  0
  9 10  1  0     0  0
  9 13  2  0     0  0
 10 11  1  0     0  0
 12 14  1  0     0  0
 14 15  1  0     0  0
 15 16  1  0     0  0
 16 17  1  0     0  0
 17 18  1  0     0  0
 18 19  1  0     0  0
 19 20  1  0     0  0
 20 21  1  0     0  0
 21 22  1  0     0  0
 22 23  1  0     0  0
 23 24  1  0     0  0
 24 25  1  0     0  0
 25 26  1  0     0  0
M  END
> <standard_type>
IC50

> <# Confs.>
25

> <canonical_smiles>
OC([C@@H](CO)O1)=C(C(NCCCCCCCCCCCCCC)=O)C1=O

> <standard_relation>
=

> <predicted_activity_value>
4.619788758288394

> <actual_activity_value>
5.102372908709558

> <Compound>
14

> <publication_ID>
nan

> <standard_units>
nM

> hash
12394674710830410581

$$$$
14_
XXILIB    08252103493D 0   0.00000     0.00000

 26 26  0     1  0            999 V2000
    2.1086    2.4051   -5.3796 O   0  0  0  0  0  2           0  0  0
    5.6594    2.5252   -2.8766 O   0  0  0  0  0  2           0  0  0
    2.6923    4.5710   -5.8527 O   0  0  0  0  0  2           0  0  0
    5.6599    5.1803   -3.9595 O   0  0  0  0  0  2           0  0  0
    5.0228    4.8242   -7.3931 O   0  0  0  0  0  2           0  0  0
    3.9171    1.1624   -3.5511 N   0  0  0  0  0  3           0  0  0
    2.8549    3.3587   -5.2396 C   0  0  0  0  0  4           0  0  0
    4.6366    2.3392   -3.5313 C   0  0  0  0  0  4           0  0  0
    4.5567    4.6310   -4.5466 C   0  0  0  0  0  4           0  0  0
    3.7509    5.4591   -5.4666 C   0  0  1  0  0  4           0  0  0
    4.4823    5.9486   -6.7065 C   0  0  0  0  0  4           0  0  0
    4.3069    0.0000   -2.7819 C   0  0  0  0  0  4           0  0  0
    4.0626    3.4007   -4.3915 C   0  0  0  0  0  4           0  0  0
    3.6820   -0.0000   -1.3930 C   0  0  0  0  0  4           0  0  0
    2.1544    0.0000   -1.3930 C   0  0  0  0  0  4           0  0  0
    1.5276   -0.0000    0.0000 C   0  0  0  0  0  4           0  0  0
   -0.0000    0.0000    0.0000 C   0  0  0  0  0  4           0  0  0
   -0.6268    0.0000    1.3930 C   0  0  0  0  0  4           0  0  0
   -2.1544    0.0000    1.3930 C   0  0  0  0  0  4           0  0  0
   -2.7812    0.0000    2.7861 C   0  0  0  0  0  4           0  0  0
   -2.4033   -1.2064    3.6435 C   0  0  0  0  0  4           0  0  0
   -3.0301   -1.2064    5.0365 C   0  0  0  0  0  4           0  0  0
   -2.6521   -2.4128    5.8940 C   0  0  0  0  0  4           0  0  0
   -3.2790   -2.4128    7.2870 C   0  0  0  0  0  4           0  0  0
   -2.9010   -3.6192    8.1444 C   0  0  0  0  0  4           0  0  0
   -3.5519   -3.5697    9.5213 C   0  0  0  0  0  4           0  0  0
  1  7  2  0     0  0
  2  8  2  0     0  0
  3  7  1  0     0  0
  3 10  1  0     0  0
  4  9  1  0     0  0
  5 11  1  0     0  0
  6  8  1  0     0  0
  6 12  1  0     0  0
  7 13  1  0     0  0
  8 13  1  0     0  0
  9 10  1  0     0  0
  9 13  2  0     0  0
 10 11  1  0     0  0
 12 14  1  0     0  0
 14 15  1  0     0  0
 15 16  1  0     0  0
 16 17  1  0     0  0
 17 18  1  0     0  0
 18 19  1  0     0  0
 19 20  1  0     0  0
 20 21  1  0     0  0
 21 22  1  0     0  0
 22 23  1  0     0  0
 23 24  1  0     0  0
 24 25  1  0     0  0
 25 26  1  0     0  0
M  END
> <standard_type>
IC50

> <# Confs.>
25

> <canonical_smiles>
OC([C@@H](CO)O1)=C(C(NCCCCCCCCCCCCCC)=O)C1=O

> <standard_relation>
=

> <predicted_activity_value>
4.619788758288394

> <actual_activity_value>
5.102372908709558

> <Compound>
14

> <publication_ID>
nan

> <standard_units>
nM

> hash
12394674710830410581

$$$$
14_
XXILIB    08252103493D 0   0.00000     0.00000

 26 26  0     1  0            999 V2000
    2.1086    2.4051   -5.3796 O   0  0  0  0  0  2           0  0  0
    5.6594    2.5252   -2.8766 O   0  0  0  0  0  2           0  0  0
    2.6923    4.5710   -5.8527 O   0  0  0  0  0  2           0  0  0
    5.6599    5.1803   -3.9595 O   0  0  0  0  0  2           0  0  0
    5.0228    4.8242   -7.3931 O   0  0  0  0  0  2           0  0  0
    3.9171    1.1624   -3.5511 N   0  0  0  0  0  3           0  0  0
    2.8549    3.3587   -5.2396 C   0  0  0  0  0  4           0  0  0
    4.6366    2.3392   -3.5313 C   0  0  0  0  0  4           0  0  0
    4.5567    4.6310   -4.5466 C   0  0  0  0  0  4           0  0  0
    3.7509    5.4591   -5.4666 C   0  0  1  0  0  4           0  0  0
    4.4823    5.9486   -6.7065 C   0  0  0  0  0  4           0  0  0
    4.3069    0.0000   -2.7819 C   0  0  0  0  0  4           0  0  0
    4.0626    3.4007   -4.3915 C   0  0  0  0  0  4           0  0  0
    3.6820   -0.0000   -1.3930 C   0  0  0  0  0  4           0  0  0
    2.1544    0.0000   -1.3930 C   0  0  0  0  0  4           0  0  0
    1.5276   -0.0000    0.0000 C   0  0  0  0  0  4           0  0  0
    0.0000   -0.0000    0.0000 C   0  0  0  0  0  4           0  0  0
   -0.6268    0.0000    1.3930 C   0  0  0  0  0  4           0  0  0
   -0.2489    1.2064    2.2505 C   0  0  0  0  0  4           0  0  0
   -0.8757    1.2064    3.6435 C   0  0  0  0  0  4           0  0  0
   -0.4978    2.4128    4.5009 C   0  0  0  0  0  4           0  0  0
   -1.1246    2.4128    5.8940 C   0  0  0  0  0  4           0  0  0
   -0.7466    3.6192    6.7514 C   0  0  0  0  0  4           0  0  0
   -1.3735    3.6192    8.1444 C   0  0  0  0  0  4           0  0  0
   -0.9955    4.8256    9.0019 C   0  0  0  0  0  4           0  0  0
   -1.6464    4.7761   10.3787 C   0  0  0  0  0  4           0  0  0
  1  7  2  0     0  0
  2  8  2  0     0  0
  3  7  1  0     0  0
  3 10  1  0     0  0
  4  9  1  0     0  0
  5 11  1  0     0  0
  6  8  1  0     0  0
  6 12  1  0     0  0
  7 13  1  0     0  0
  8 13  1  0     0  0
  9 10  1  0     0  0
  9 13  2  0     0  0
 10 11  1  0     0  0
 12 14  1  0     0  0
 14 15  1  0     0  0
 15 16  1  0     0  0
 16 17  1  0     0  0
 17 18  1  0     0  0
 18 19  1  0     0  0
 19 20  1  0     0  0
 20 21  1  0     0  0
 21 22  1  0     0  0
 22 23  1  0     0  0
 23 24  1  0     0  0
 24 25  1  0     0  0
 25 26  1  0     0  0
M  END
> <standard_type>
IC50

> <# Confs.>
25

> <canonical_smiles>
OC([C@@H](CO)O1)=C(C(NCCCCCCCCCCCCCC)=O)C1=O

> <standard_relation>
=

> <predicted_activity_value>
4.619788758288394

> <actual_activity_value>
5.102372908709558

> <Compound>
14

> <publication_ID>
nan

> <standard_units>
nM

> hash
12394674710830410581

$$$$
9_
XXILIB    08252103493D 0   0.00000     0.00000

 36 38  0     1  0            999 V2000
  -16.7496   -0.1080    5.6901 Br  0  0  0  0  0  1           0  0  0
  -10.3896   -0.0716    8.5854 O   0  0  0  0  0  2           0  0  0
  -10.0036   -0.0248    3.9011 O   0  0  0  0  0  2           0  0  0
   -6.9384   -0.0000    3.1127 O   0  0  0  0  0  2           0  0  0
   -7.3647   -0.0286    7.5720 N   0  0  0  0  0  3           0  0  0
   -6.4029   -0.0124    6.6183 N   0  0  0  0  0  3           0  0  0
  -10.6496   -0.0546    6.2069 N   0  0  2  0  0  3           0  0  0
  -14.8656   -0.0939    5.8517 C   0  0  0  0  0  4           0  0  0
   -8.6001   -0.0385    7.0394 C   0  0  0  0  0  4           0  0  0
   -7.0792   -0.0127    5.4470 C   0  0  0  0  0  4           0  0  0
  -12.0657   -0.0694    6.0891 C   0  0  0  0  0  4           0  0  0
   -8.4589   -0.0272    5.6868 C   0  0  0  0  0  4           0  0  0
  -14.2695    0.5061    6.9576 C   0  0  0  0  0  4           0  0  0
  -14.0820   -0.6843    4.8640 C   0  0  0  0  0  4           0  0  0
  -12.8765    0.5170    7.0751 C   0  0  0  0  0  4           0  0  0
  -12.6894   -0.6708    4.9829 C   0  0  0  0  0  4           0  0  0
   -9.9659   -0.0567    7.4411 C   0  0  0  0  0  4           0  0  0
   -9.7711   -0.0354    5.0986 C   0  0  0  0  0  4           0  0  0
   -6.3442   -0.0000    4.1907 C   0  0  0  0  0  4           0  0  0
   -4.8306    0.0000    4.2191 C   0  0  0  0  0  4           0  0  0
   -4.2380   -0.0000    2.8129 C   0  0  0  0  0  4           0  0  0
   -2.7117    0.0000    2.8129 C   0  0  0  0  0  4           0  0  0
   -2.1190   -0.0000    1.4064 C   0  0  0  0  0  4           0  0  0
   -0.5927    0.0000    1.4064 C   0  0  0  0  0  4           0  0  0
    0.0000   -0.0000    0.0000 C   0  0  0  0  0  4           0  0  0
    1.5260    0.0000    0.0000 C   0  0  0  0  0  4           0  0  0
    2.1188    0.0000   -1.4064 C   0  0  0  0  0  4           0  0  0
    3.6450    0.0000   -1.4064 C   0  0  0  0  0  4           0  0  0
    4.2378    0.0000   -2.8129 C   0  0  0  0  0  4           0  0  0
    5.7640    0.0000   -2.8129 C   0  0  0  0  0  4           0  0  0
    6.3567    0.0000   -4.2193 C   0  0  0  0  0  4           0  0  0
    7.8830    0.0000   -4.2193 C   0  0  0  0  0  4           0  0  0
    8.4757    0.0000   -5.6258 C   0  0  0  0  0  4           0  0  0
   10.0019    0.0000   -5.6258 C   0  0  0  0  0  4           0  0  0
   10.5947    0.0000   -7.0322 C   0  0  0  0  0  4           0  0  0
   12.1162    0.0000   -7.0310 C   0  0  0  0  0  4           0  0  0
  1  8  1  0     0  0
  2 17  2  0     0  0
  3 18  2  0     0  0
  4 19  2  0     0  0
  5  6  1  0     0  0
  5  9  1  0     0  0
  6 10  2  0     0  0
  7 11  1  0     0  0
  7 17  1  0     0  0
  7 18  1  0     0  0
  8 13  2  0     0  0
  8 14  1  0     0  0
  9 12  2  0     0  0
  9 17  1  0     0  0
 10 12  1  0     0  0
 10 19  1  0     0  0
 11 15  2  0     0  0
 11 16  1  0     0  0
 12 18  1  0     0  0
 13 15  1  0     0  0
 14 16  2  0     0  0
 19 20  1  0     0  0
 20 21  1  0     0  0
 21 22  1  0     0  0
 22 23  1  0     0  0
 23 24  1  0     0  0
 24 25  1  0     0  0
 25 26  1  0     0  0
 26 27  1  0     0  0
 27 28  1  0     0  0
 28 29  1  0     0  0
 29 30  1  0     0  0
 30 31  1  0     0  0
 31 32  1  0     0  0
 32 33  1  0     0  0
 33 34  1  0     0  0
 34 35  1  0     0  0
 35 36  1  0     0  0
M  END
> <standard_type>
IC50

> <# Confs.>
25

> <canonical_smiles>
O=C1C2=C(C(C(CCCCCCCCCCCCCCCCC)=O)=NN2)C(N1C3=CC=C(Br)C=C3)=O

> <standard_relation>
=

> <predicted_activity_value>
6.3979400086720375

> <actual_activity_value>
6.017728766960431

> <Compound>
9

> <publication_ID>
nan

> <standard_units>
nM

> hash
4718146281972516300

$$$$
9_
XXILIB    08252103493D 0   0.00000     0.00000

 36 38  0     1  0            999 V2000
  -16.7157   -1.6949    3.8875 Br  0  0  0  0  0  1           0  0  0
  -10.3042   -4.4701    4.0446 O   0  0  0  0  0  2           0  0  0
  -10.0072    0.2207    4.0970 O   0  0  0  0  0  2           0  0  0
   -6.9585    1.0666    4.1791 O   0  0  0  0  0  2           0  0  0
   -7.3002   -3.4000    4.1440 N   0  0  0  0  0  3           0  0  0
   -6.3570   -2.4283    4.1780 N   0  0  0  0  0  3           0  0  0
  -10.6091   -2.0969    4.0558 N   0  0  2  0  0  3           0  0  0
  -14.8296   -1.8210    3.9371 C   0  0  0  0  0  4           0  0  0
   -8.5450   -2.8907    4.1107 C   0  0  0  0  0  4           0  0  0
   -7.0551   -1.2699    4.1646 C   0  0  0  0  0  4           0  0  0
  -12.0267   -2.0058    4.0144 C   0  0  0  0  0  4           0  0  0
   -8.4295   -1.5357    4.1243 C   0  0  0  0  0  4           0  0  0
  -14.2242   -2.9155    4.5486 C   0  0  0  0  0  4           0  0  0
  -14.0537   -0.8187    3.3612 C   0  0  0  0  0  4           0  0  0
  -12.8296   -3.0068    4.5858 C   0  0  0  0  0  4           0  0  0
  -12.6596   -0.9115    3.4009 C   0  0  0  0  0  4           0  0  0
   -9.9024   -3.3180    4.0670 C   0  0  0  0  0  4           0  0  0
   -9.7521   -0.9722    4.0912 C   0  0  0  0  0  4           0  0  0
   -6.3442   -0.0000    4.1907 C   0  0  0  0  0  4           0  0  0
   -4.8306    0.0000    4.2191 C   0  0  0  0  0  4           0  0  0
   -4.2380   -0.0000    2.8129 C   0  0  0  0  0  4           0  0  0
   -2.7117    0.0000    2.8129 C   0  0  0  0  0  4           0  0  0
   -2.1190   -0.0000    1.4064 C   0  0  0  0  0  4           0  0  0
   -0.5927    0.0000    1.4064 C   0  0  0  0  0  4           0  0  0
    0.0000   -0.0000    0.0000 C   0  0  0  0  0  4           0  0  0
    1.5260    0.0000    0.0000 C   0  0  0  0  0  4           0  0  0
    2.1188    0.0000   -1.4064 C   0  0  0  0  0  4           0  0  0
    3.6450    0.0000   -1.4064 C   0  0  0  0  0  4           0  0  0
    4.2378    0.0000   -2.8129 C   0  0  0  0  0  4           0  0  0
    5.7640    0.0000   -2.8129 C   0  0  0  0  0  4           0  0  0
    6.3567    0.0000   -4.2193 C   0  0  0  0  0  4           0  0  0
    7.8830    0.0000   -4.2193 C   0  0  0  0  0  4           0  0  0
    8.4757    0.0000   -5.6258 C   0  0  0  0  0  4           0  0  0
   10.0019    0.0000   -5.6258 C   0  0  0  0  0  4           0  0  0
   10.5947    0.0000   -7.0322 C   0  0  0  0  0  4           0  0  0
   12.1162    0.0000   -7.0310 C   0  0  0  0  0  4           0  0  0
  1  8  1  0     0  0
  2 17  2  0     0  0
  3 18  2  0     0  0
  4 19  2  0     0  0
  5  6  1  0     0  0
  5  9  1  0     0  0
  6 10  2  0     0  0
  7 11  1  0     0  0
  7 17  1  0     0  0
  7 18  1  0     0  0
  8 13  2  0     0  0
  8 14  1  0     0  0
  9 12  2  0     0  0
  9 17  1  0     0  0
 10 12  1  0     0  0
 10 19  1  0     0  0
 11 15  2  0     0  0
 11 16  1  0     0  0
 12 18  1  0     0  0
 13 15  1  0     0  0
 14 16  2  0     0  0
 19 20  1  0     0  0
 20 21  1  0     0  0
 21 22  1  0     0  0
 22 23  1  0     0  0
 23 24  1  0     0  0
 24 25  1  0     0  0
 25 26  1  0     0  0
 26 27  1  0     0  0
 27 28  1  0     0  0
 28 29  1  0     0  0
 29 30  1  0     0  0
 30 31  1  0     0  0
 31 32  1  0     0  0
 32 33  1  0     0  0
 33 34  1  0     0  0
 34 35  1  0     0  0
 35 36  1  0     0  0
M  END
> <standard_type>
IC50

> <# Confs.>
25

> <canonical_smiles>
O=C1C2=C(C(C(CCCCCCCCCCCCCCCCC)=O)=NN2)C(N1C3=CC=C(Br)C=C3)=O

> <standard_relation>
=

> <predicted_activity_value>
6.3979400086720375

> <actual_activity_value>
6.017728766960431

> <Compound>
9

> <publication_ID>
nan

> <standard_units>
nM

> hash
4718146281972516300

$$$$
9_
XXILIB    08252103493D 0   0.00000     0.00000

 36 38  0     1  0            999 V2000
  -16.7197    1.6949    4.1035 Br  0  0  0  0  0  1           0  0  0
  -10.3069    4.4701    4.1877 O   0  0  0  0  0  2           0  0  0
  -10.0082   -0.2207    4.1465 O   0  0  0  0  0  2           0  0  0
   -6.9585   -1.0666    4.1791 O   0  0  0  0  0  2           0  0  0
   -7.3013    3.4000    4.2013 N   0  0  0  0  0  3           0  0  0
   -6.3575    2.4283    4.2028 N   0  0  0  0  0  3           0  0  0
  -10.6112    2.0969    4.1650 N   0  0  2  0  0  3           0  0  0
  -14.8331    1.8210    4.1249 C   0  0  0  0  0  4           0  0  0
   -8.5465    2.8907    4.1878 C   0  0  0  0  0  4           0  0  0
   -7.0555    1.2699    4.1899 C   0  0  0  0  0  4           0  0  0
  -12.0293    2.0058    4.1531 C   0  0  0  0  0  4           0  0  0
   -8.4305    1.5357    4.1786 C   0  0  0  0  0  4           0  0  0
  -14.2051    2.9155    3.5366 C   0  0  0  0  0  4           0  0  0
  -14.0794    0.8187    4.7295 C   0  0  0  0  0  4           0  0  0
  -12.8102    3.0068    3.5519 C   0  0  0  0  0  4           0  0  0
  -12.6849    0.9115    4.7423 C   0  0  0  0  0  4           0  0  0
   -9.9046    3.3180    4.1804 C   0  0  0  0  0  4           0  0  0
   -9.7535    0.9722    4.1619 C   0  0  0  0  0  4           0  0  0
   -6.3442   -0.0000    4.1907 C   0  0  0  0  0  4           0  0  0
   -4.8306    0.0000    4.2191 C   0  0  0  0  0  4           0  0  0
   -4.2380   -0.0000    2.8129 C   0  0  0  0  0  4           0  0  0
   -2.7117    0.0000    2.8129 C   0  0  0  0  0  4           0  0  0
   -2.1190   -0.0000    1.4064 C   0  0  0  0  0  4           0  0  0
   -0.5927    0.0000    1.4064 C   0  0  0  0  0  4           0  0  0
    0.0000   -0.0000    0.0000 C   0  0  0  0  0  4           0  0  0
    1.5260    0.0000    0.0000 C   0  0  0  0  0  4           0  0  0
    2.1188    0.0000   -1.4064 C   0  0  0  0  0  4           0  0  0
    3.6450    0.0000   -1.4064 C   0  0  0  0  0  4           0  0  0
    4.2378    0.0000   -2.8129 C   0  0  0  0  0  4           0  0  0
    5.7640    0.0000   -2.8129 C   0  0  0  0  0  4           0  0  0
    6.3567    0.0000   -4.2193 C   0  0  0  0  0  4           0  0  0
    7.8830    0.0000   -4.2193 C   0  0  0  0  0  4           0  0  0
    8.4757    0.0000   -5.6258 C   0  0  0  0  0  4           0  0  0
   10.0019    0.0000   -5.6258 C   0  0  0  0  0  4           0  0  0
   10.5947    0.0000   -7.0322 C   0  0  0  0  0  4           0  0  0
   12.1162    0.0000   -7.0310 C   0  0  0  0  0  4           0  0  0
  1  8  1  0     0  0
  2 17  2  0     0  0
  3 18  2  0     0  0
  4 19  2  0     0  0
  5  6  1  0     0  0
  5  9  1  0     0  0
  6 10  2  0     0  0
  7 11  1  0     0  0
  7 17  1  0     0  0
  7 18  1  0     0  0
  8 13  2  0     0  0
  8 14  1  0     0  0
  9 12  2  0     0  0
  9 17  1  0     0  0
 10 12  1  0     0  0
 10 19  1  0     0  0
 11 15  2  0     0  0
 11 16  1  0     0  0
 12 18  1  0     0  0
 13 15  1  0     0  0
 14 16  2  0     0  0
 19 20  1  0     0  0
 20 21  1  0     0  0
 21 22  1  0     0  0
 22 23  1  0     0  0
 23 24  1  0     0  0
 24 25  1  0     0  0
 25 26  1  0     0  0
 26 27  1  0     0  0
 27 28  1  0     0  0
 28 29  1  0     0  0
 29 30  1  0     0  0
 30 31  1  0     0  0
 31 32  1  0     0  0
 32 33  1  0     0  0
 33 34  1  0     0  0
 34 35  1  0     0  0
 35 36  1  0     0  0
M  END
> <standard_type>
IC50

> <# Confs.>
25

> <canonical_smiles>
O=C1C2=C(C(C(CCCCCCCCCCCCCCCCC)=O)=NN2)C(N1C3=CC=C(Br)C=C3)=O

> <standard_relation>
=

> <predicted_activity_value>
6.3979400086720375

> <actual_activity_value>
6.017728766960431

> <Compound>
9

> <publication_ID>
nan

> <standard_units>
nM

> hash
4718146281972516300

$$$$
9_
XXILIB    08252103493D 0   0.00000     0.00000

 36 38  0     1  0            999 V2000
  -16.7443   -0.9641    5.4020 Br  0  0  0  0  0  1           0  0  0
  -10.3777   -2.2970    7.9509 O   0  0  0  0  0  2           0  0  0
  -10.0039    0.0889    3.9183 O   0  0  0  0  0  2           0  0  0
   -6.9411    0.5333    3.2556 O   0  0  0  0  0  2           0  0  0
   -7.3559   -1.7248    7.1023 N   0  0  0  0  0  3           0  0  0
   -6.3967   -1.2249    6.2868 N   0  0  0  0  0  3           0  0  0
  -10.6438   -1.0957    5.8987 N   0  0  2  0  0  3           0  0  0
  -14.8601   -1.0027    5.5578 C   0  0  0  0  0  4           0  0  0
   -8.5925   -1.4787    6.6330 C   0  0  0  0  0  4           0  0  0
   -7.0759   -0.6459    5.2705 C   0  0  0  0  0  4           0  0  0
  -12.0600   -1.0630    5.7858 C   0  0  0  0  0  4           0  0  0
   -8.4548   -0.7914    5.4675 C   0  0  0  0  0  4           0  0  0
  -14.0992    0.0331    5.0227 C   0  0  0  0  0  4           0  0  0
  -14.2413   -2.0671    6.2077 C   0  0  0  0  0  4           0  0  0
  -12.7063    0.0025    5.1374 C   0  0  0  0  0  4           0  0  0
  -12.8484   -2.0962    6.3199 C   0  0  0  0  0  4           0  0  0
   -9.9570   -1.7081    6.9683 C   0  0  0  0  0  4           0  0  0
   -9.7683   -0.5168    4.9507 C   0  0  0  0  0  4           0  0  0
   -6.3442   -0.0000    4.1907 C   0  0  0  0  0  4           0  0  0
   -4.8306    0.0000    4.2191 C   0  0  0  0  0  4           0  0  0
   -4.2380   -0.0000    2.8129 C   0  0  0  0  0  4           0  0  0
   -2.7117    0.0000    2.8129 C   0  0  0  0  0  4           0  0  0
   -2.1190   -0.0000    1.4064 C   0  0  0  0  0  4           0  0  0
   -0.5927    0.0000    1.4064 C   0  0  0  0  0  4           0  0  0
    0.0000   -0.0000    0.0000 C   0  0  0  0  0  4           0  0  0
    1.5260    0.0000    0.0000 C   0  0  0  0  0  4           0  0  0
    2.1188    0.0000   -1.4064 C   0  0  0  0  0  4           0  0  0
    3.6450    0.0000   -1.4064 C   0  0  0  0  0  4           0  0  0
    4.2378    0.0000   -2.8129 C   0  0  0  0  0  4           0  0  0
    5.7640    0.0000   -2.8129 C   0  0  0  0  0  4           0  0  0
    6.3567    0.0000   -4.2193 C   0  0  0  0  0  4           0  0  0
    7.8830    0.0000   -4.2193 C   0  0  0  0  0  4           0  0  0
    8.4757    0.0000   -5.6258 C   0  0  0  0  0  4           0  0  0
   10.0019    0.0000   -5.6258 C   0  0  0  0  0  4           0  0  0
   10.5947    0.0000   -7.0322 C   0  0  0  0  0  4           0  0  0
   12.1162    0.0000   -7.0310 C   0  0  0  0  0  4           0  0  0
  1  8  1  0     0  0
  2 17  2  0     0  0
  3 18  2  0     0  0
  4 19  2  0     0  0
  5  6  1  0     0  0
  5  9  1  0     0  0
  6 10  2  0     0  0
  7 11  1  0     0  0
  7 17  1  0     0  0
  7 18  1  0     0  0
  8 13  2  0     0  0
  8 14  1  0     0  0
  9 12  2  0     0  0
  9 17  1  0     0  0
 10 12  1  0     0  0
 10 19  1  0     0  0
 11 15  2  0     0  0
 11 16  1  0     0  0
 12 18  1  0     0  0
 13 15  1  0     0  0
 14 16  2  0     0  0
 19 20  1  0     0  0
 20 21  1  0     0  0
 21 22  1  0     0  0
 22 23  1  0     0  0
 23 24  1  0     0  0
 24 25  1  0     0  0
 25 26  1  0     0  0
 26 27  1  0     0  0
 27 28  1  0     0  0
 28 29  1  0     0  0
 29 30  1  0     0  0
 30 31  1  0     0  0
 31 32  1  0     0  0
 32 33  1  0     0  0
 33 34  1  0     0  0
 34 35  1  0     0  0
 35 36  1  0     0  0
M  END
> <standard_type>
IC50

> <# Confs.>
25

> <canonical_smiles>
O=C1C2=C(C(C(CCCCCCCCCCCCCCCCC)=O)=NN2)C(N1C3=CC=C(Br)C=C3)=O

> <standard_relation>
=

> <predicted_activity_value>
6.3979400086720375

> <actual_activity_value>
6.017728766960431

> <Compound>
9

> <publication_ID>
nan

> <standard_units>
nM

> hash
4718146281972516300

$$$$
9_
XXILIB    08252103493D 0   0.00000     0.00000

 36 38  0     1  0            999 V2000
  -16.7467    0.7362    5.5335 Br  0  0  0  0  0  1           0  0  0
  -10.3791    2.1731    8.0225 O   0  0  0  0  0  2           0  0  0
  -10.0044   -0.1318    3.9431 O   0  0  0  0  0  2           0  0  0
   -6.9411   -0.5333    3.2556 O   0  0  0  0  0  2           0  0  0
   -7.3564    1.6752    7.1309 N   0  0  0  0  0  3           0  0  0
   -6.3969    1.2034    6.2992 N   0  0  0  0  0  3           0  0  0
  -10.6448    1.0011    5.9533 N   0  0  2  0  0  3           0  0  0
  -14.8621    0.8212    5.6627 C   0  0  0  0  0  4           0  0  0
   -8.5932    1.4120    6.6715 C   0  0  0  0  0  4           0  0  0
   -7.0761    0.6240    5.2832 C   0  0  0  0  0  4           0  0  0
  -12.0613    0.9428    5.8551 C   0  0  0  0  0  4           0  0  0
   -8.4553    0.7443    5.4947 C   0  0  0  0  0  4           0  0  0
  -14.0895    0.8633    4.5052 C   0  0  0  0  0  4           0  0  0
  -14.2546    0.8416    6.9151 C   0  0  0  0  0  4           0  0  0
  -12.6962    0.9246    4.6022 C   0  0  0  0  0  4           0  0  0
  -12.8614    0.9015    7.0095 C   0  0  0  0  0  4           0  0  0
   -9.9581    1.6099    7.0250 C   0  0  0  0  0  4           0  0  0
   -9.7690    0.4555    4.9861 C   0  0  0  0  0  4           0  0  0
   -6.3442   -0.0000    4.1907 C   0  0  0  0  0  4           0  0  0
   -4.8306    0.0000    4.2191 C   0  0  0  0  0  4           0  0  0
   -4.2380   -0.0000    2.8129 C   0  0  0  0  0  4           0  0  0
   -2.7117    0.0000    2.8129 C   0  0  0  0  0  4           0  0  0
   -2.1190   -0.0000    1.4064 C   0  0  0  0  0  4           0  0  0
   -0.5927    0.0000    1.4064 C   0  0  0  0  0  4           0  0  0
    0.0000   -0.0000    0.0000 C   0  0  0  0  0  4           0  0  0
    1.5260    0.0000    0.0000 C   0  0  0  0  0  4           0  0  0
    2.1188    0.0000   -1.4064 C   0  0  0  0  0  4           0  0  0
    3.6450    0.0000   -1.4064 C   0  0  0  0  0  4           0  0  0
    4.2378    0.0000   -2.8129 C   0  0  0  0  0  4           0  0  0
    5.7640    0.0000   -2.8129 C   0  0  0  0  0  4           0  0  0
    6.3567    0.0000   -4.2193 C   0  0  0  0  0  4           0  0  0
    7.8830    0.0000   -4.2193 C   0  0  0  0  0  4           0  0  0
    8.4757    0.0000   -5.6258 C   0  0  0  0  0  4           0  0  0
   10.0019    0.0000   -5.6258 C   0  0  0  0  0  4           0  0  0
   10.5947    0.0000   -7.0322 C   0  0  0  0  0  4           0  0  0
   12.1162    0.0000   -7.0310 C   0  0  0  0  0  4           0  0  0
  1  8  1  0     0  0
  2 17  2  0     0  0
  3 18  2  0     0  0
  4 19  2  0     0  0
  5  6  1  0     0  0
  5  9  1  0     0  0
  6 10  2  0     0  0
  7 11  1  0     0  0
  7 17  1  0     0  0
  7 18  1  0     0  0
  8 13  2  0     0  0
  8 14  1  0     0  0
  9 12  2  0     0  0
  9 17  1  0     0  0
 10 12  1  0     0  0
 10 19  1  0     0  0
 11 15  2  0     0  0
 11 16  1  0     0  0
 12 18  1  0     0  0
 13 15  1  0     0  0
 14 16  2  0     0  0
 19 20  1  0     0  0
 20 21  1  0     0  0
 21 22  1  0     0  0
 22 23  1  0     0  0
 23 24  1  0     0  0
 24 25  1  0     0  0
 25 26  1  0     0  0
 26 27  1  0     0  0
 27 28  1  0     0  0
 28 29  1  0     0  0
 29 30  1  0     0  0
 30 31  1  0     0  0
 31 32  1  0     0  0
 32 33  1  0     0  0
 33 34  1  0     0  0
 34 35  1  0     0  0
 35 36  1  0     0  0
M  END
> <standard_type>
IC50

> <# Confs.>
25

> <canonical_smiles>
O=C1C2=C(C(C(CCCCCCCCCCCCCCCCC)=O)=NN2)C(N1C3=CC=C(Br)C=C3)=O

> <standard_relation>
=

> <predicted_activity_value>
6.3979400086720375

> <actual_activity_value>
6.017728766960431

> <Compound>
9

> <publication_ID>
nan

> <standard_units>
nM

> hash
4718146281972516300

$$$$
9_
XXILIB    08252103493D 0   0.00000     0.00000

 36 38  0     1  0            999 V2000
   -2.7515   10.4438    9.7726 Br  0  0  0  0  0  1           0  0  0
   -6.8058    6.6620    5.5189 O   0  0  0  0  0  2           0  0  0
   -3.1717    4.0620    6.9777 O   0  0  0  0  0  2           0  0  0
   -3.3754    1.1783    5.6892 O   0  0  0  0  0  2           0  0  0
   -6.8275    3.6961    4.3432 N   0  0  0  0  0  3           0  0  0
   -6.3286    2.4461    4.1900 N   0  0  0  0  0  3           0  0  0
   -4.8344    5.7149    6.4895 N   0  0  2  0  0  3           0  0  0
   -3.3951    8.9851    8.7560 C   0  0  0  0  0  4           0  0  0
   -6.0625    4.4461    5.1570 C   0  0  0  0  0  4           0  0  0
   -5.2058    2.4285    4.9440 C   0  0  0  0  0  4           0  0  0
   -4.3514    6.8146    7.2491 C   0  0  0  0  0  4           0  0  0
   -5.0200    3.6718    5.5612 C   0  0  0  0  0  4           0  0  0
   -4.7626    8.8435    8.5361 C   0  0  0  0  0  4           0  0  0
   -2.4985    8.0584    8.2310 C   0  0  0  0  0  4           0  0  0
   -5.2371    7.7637    7.7856 C   0  0  0  0  0  4           0  0  0
   -2.9755    6.9789    7.4822 C   0  0  0  0  0  4           0  0  0
   -6.0084    5.7577    5.7081 C   0  0  0  0  0  4           0  0  0
   -4.1905    4.4568    6.4351 C   0  0  0  0  0  4           0  0  0
   -4.4009    1.2175    5.0097 C   0  0  0  0  0  4           0  0  0
   -4.8306    0.0000    4.2191 C   0  0  0  0  0  4           0  0  0
   -4.2380    0.0000    2.8129 C   0  0  0  0  0  4           0  0  0
   -2.7117    0.0000    2.8129 C   0  0  0  0  0  4           0  0  0
   -2.1190    0.0000    1.4064 C   0  0  0  0  0  4           0  0  0
   -0.5927    0.0000    1.4064 C   0  0  0  0  0  4           0  0  0
    0.0000    0.0000    0.0000 C   0  0  0  0  0  4           0  0  0
    1.5260    0.0000    0.0000 C   0  0  0  0  0  4           0  0  0
    2.1188    0.0000   -1.4064 C   0  0  0  0  0  4           0  0  0
    3.6450    0.0000   -1.4064 C   0  0  0  0  0  4           0  0  0
    4.2378    0.0000   -2.8129 C   0  0  0  0  0  4           0  0  0
    5.7640    0.0000   -2.8129 C   0  0  0  0  0  4           0  0  0
    6.3567    0.0000   -4.2193 C   0  0  0  0  0  4           0  0  0
    7.8830    0.0000   -4.2193 C   0  0  0  0  0  4           0  0  0
    8.4757    0.0000   -5.6258 C   0  0  0  0  0  4           0  0  0
   10.0019    0.0000   -5.6258 C   0  0  0  0  0  4           0  0  0
   10.5947    0.0000   -7.0322 C   0  0  0  0  0  4           0  0  0
   12.1162    0.0000   -7.0310 C   0  0  0  0  0  4           0  0  0
  1  8  1  0     0  0
  2 17  2  0     0  0
  3 18  2  0     0  0
  4 19  2  0     0  0
  5  6  1  0     0  0
  5  9  1  0     0  0
  6 10  2  0     0  0
  7 11  1  0     0  0
  7 17  1  0     0  0
  7 18  1  0     0  0
  8 13  2  0     0  0
  8 14  1  0     0  0
  9 12  2  0     0  0
  9 17  1  0     0  0
 10 12  1  0     0  0
 10 19  1  0     0  0
 11 15  2  0     0  0
 11 16  1  0     0  0
 12 18  1  0     0  0
 13 15  1  0     0  0
 14 16  2  0     0  0
 19 20  1  0     0  0
 20 21  1  0     0  0
 21 22  1  0     0  0
 22 23  1  0     0  0
 23 24  1  0     0  0
 24 25  1  0     0  0
 25 26  1  0     0  0
 26 27  1  0     0  0
 27 28  1  0     0  0
 28 29  1  0     0  0
 29 30  1  0     0  0
 30 31  1  0     0  0
 31 32  1  0     0  0
 32 33  1  0     0  0
 33 34  1  0     0  0
 34 35  1  0     0  0
 35 36  1  0     0  0
M  END
> <standard_type>
IC50

> <# Confs.>
25

> <canonical_smiles>
O=C1C2=C(C(C(CCCCCCCCCCCCCCCCC)=O)=NN2)C(N1C3=CC=C(Br)C=C3)=O

> <standard_relation>
=

> <predicted_activity_value>
6.3979400086720375

> <actual_activity_value>
6.017728766960431

> <Compound>
9

> <publication_ID>
nan

> <standard_units>
nM

> hash
4718146281972516300

$$$$
9_
XXILIB    08252103493D 0   0.00000     0.00000

 36 38  0     1  0            999 V2000
   -2.8663  -10.3744    9.9419 Br  0  0  0  0  0  1           0  0  0
   -6.8819   -6.6160    5.6312 O   0  0  0  0  0  2           0  0  0
   -3.1981   -4.0460    7.0166 O   0  0  0  0  0  2           0  0  0
   -3.3754   -1.1783    5.6892 O   0  0  0  0  0  2           0  0  0
   -6.8580   -3.6777    4.3881 N   0  0  0  0  0  3           0  0  0
   -6.3417   -2.4382    4.2095 N   0  0  0  0  0  3           0  0  0
   -4.8924   -5.6798    6.5751 N   0  0  2  0  0  3           0  0  0
   -3.4950   -8.9247    8.9033 C   0  0  0  0  0  4           0  0  0
   -6.1034   -4.4213    5.2174 C   0  0  0  0  0  4           0  0  0
   -5.2193   -2.4204    4.9638 C   0  0  0  0  0  4           0  0  0
   -4.4251   -6.7700    7.3578 C   0  0  0  0  0  4           0  0  0
   -5.0488   -3.6544    5.6038 C   0  0  0  0  0  4           0  0  0
   -4.2245   -9.1686    7.7428 C   0  0  0  0  0  4           0  0  0
   -3.2260   -7.6187    9.3036 C   0  0  0  0  0  4           0  0  0
   -4.6875   -8.0959    6.9751 C   0  0  0  0  0  4           0  0  0
   -3.6887   -6.5479    8.5337 C   0  0  0  0  0  4           0  0  0
   -6.0687   -5.7213    5.7970 C   0  0  0  0  0  4           0  0  0
   -4.2281   -4.4340    6.4905 C   0  0  0  0  0  4           0  0  0
   -4.4009   -1.2175    5.0097 C   0  0  0  0  0  4           0  0  0
   -4.8306   -0.0000    4.2191 C   0  0  0  0  0  4           0  0  0
   -4.2380   -0.0000    2.8129 C   0  0  0  0  0  4           0  0  0
   -2.7117   -0.0000    2.8129 C   0  0  0  0  0  4           0  0  0
   -2.1190   -0.0000    1.4064 C   0  0  0  0  0  4           0  0  0
   -0.5927    0.0000    1.4064 C   0  0  0  0  0  4           0  0  0
    0.0000    0.0000    0.0000 C   0  0  0  0  0  4           0  0  0
    1.5260    0.0000    0.0000 C   0  0  0  0  0  4           0  0  0
    2.1188    0.0000   -1.4064 C   0  0  0  0  0  4           0  0  0
    3.6450    0.0000   -1.4064 C   0  0  0  0  0  4           0  0  0
    4.2378    0.0000   -2.8129 C   0  0  0  0  0  4           0  0  0
    5.7640    0.0000   -2.8129 C   0  0  0  0  0  4           0  0  0
    6.3567    0.0000   -4.2193 C   0  0  0  0  0  4           0  0  0
    7.8830    0.0000   -4.2193 C   0  0  0  0  0  4           0  0  0
    8.4757    0.0000   -5.6258 C   0  0  0  0  0  4           0  0  0
   10.0019    0.0000   -5.6258 C   0  0  0  0  0  4           0  0  0
   10.5947    0.0000   -7.0322 C   0  0  0  0  0  4           0  0  0
   12.1162    0.0000   -7.0310 C   0  0  0  0  0  4           0  0  0
  1  8  1  0     0  0
  2 17  2  0     0  0
  3 18  2  0     0  0
  4 19  2  0     0  0
  5  6  1  0     0  0
  5  9  1  0     0  0
  6 10  2  0     0  0
  7 11  1  0     0  0
  7 17  1  0     0  0
  7 18  1  0     0  0
  8 13  2  0     0  0
  8 14  1  0     0  0
  9 12  2  0     0  0
  9 17  1  0     0  0
 10 12  1  0     0  0
 10 19  1  0     0  0
 11 15  2  0     0  0
 11 16  1  0     0  0
 12 18  1  0     0  0
 13 15  1  0     0  0
 14 16  2  0     0  0
 19 20  1  0     0  0
 20 21  1  0     0  0
 21 22  1  0     0  0
 22 23  1  0     0  0
 23 24  1  0     0  0
 24 25  1  0     0  0
 25 26  1  0     0  0
 26 27  1  0     0  0
 27 28  1  0     0  0
 28 29  1  0     0  0
 29 30  1  0     0  0
 30 31  1  0     0  0
 31 32  1  0     0  0
 32 33  1  0     0  0
 33 34  1  0     0  0
 34 35  1  0     0  0
 35 36  1  0     0  0
M  END
> <standard_type>
IC50

> <# Confs.>
25

> <canonical_smiles>
O=C1C2=C(C(C(CCCCCCCCCCCCCCCCC)=O)=NN2)C(N1C3=CC=C(Br)C=C3)=O

> <standard_relation>
=

> <predicted_activity_value>
6.3979400086720375

> <actual_activity_value>
6.017728766960431

> <Compound>
9

> <publication_ID>
nan

> <standard_units>
nM

> hash
4718146281972516300

$$$$
9_
XXILIB    08252103493D 0   0.00000     0.00000

 36 38  0     1  0            999 V2000
   -1.4347   -8.6278   11.8541 Br  0  0  0  0  0  1           0  0  0
   -3.4821   -2.0232   10.8570 O   0  0  0  0  0  2           0  0  0
   -3.3238   -4.2742    6.7336 O   0  0  0  0  0  2           0  0  0
   -4.1612   -2.2750    4.4272 O   0  0  0  0  0  2           0  0  0
   -4.3105   -0.1832    8.3857 N   0  0  0  0  0  3           0  0  0
   -4.5343    0.0580    7.0717 N   0  0  0  0  0  3           0  0  0
   -3.2664   -3.5265    9.0079 N   0  0  2  0  0  3           0  0  0
   -2.0033   -7.0524   10.9763 C   0  0  0  0  0  4           0  0  0
   -3.9164   -1.4509    8.6036 C   0  0  0  0  0  4           0  0  0
   -4.2649   -1.1153    6.4552 C   0  0  0  0  0  4           0  0  0
   -2.8442   -4.7110    9.6697 C   0  0  0  0  0  4           0  0  0
   -3.8771   -2.0767    7.3968 C   0  0  0  0  0  4           0  0  0
   -2.7510   -7.1431    9.8053 C   0  0  0  0  0  4           0  0  0
   -1.6722   -5.8078   11.5049 C   0  0  0  0  0  4           0  0  0
   -3.1695   -5.9776    9.1566 C   0  0  0  0  0  4           0  0  0
   -2.0905   -4.6439   10.8537 C   0  0  0  0  0  4           0  0  0
   -3.5398   -2.3125    9.6728 C   0  0  0  0  0  4           0  0  0
   -3.4591   -3.4361    7.6096 C   0  0  0  0  0  4           0  0  0
   -4.4009   -1.2175    5.0097 C   0  0  0  0  0  4           0  0  0
   -4.8306   -0.0000    4.2191 C   0  0  0  0  0  4           0  0  0
   -4.2380   -0.0000    2.8129 C   0  0  0  0  0  4           0  0  0
   -2.7117   -0.0000    2.8129 C   0  0  0  0  0  4           0  0  0
   -2.1190   -0.0000    1.4064 C   0  0  0  0  0  4           0  0  0
   -0.5927    0.0000    1.4064 C   0  0  0  0  0  4           0  0  0
    0.0000    0.0000    0.0000 C   0  0  0  0  0  4           0  0  0
    1.5260    0.0000    0.0000 C   0  0  0  0  0  4           0  0  0
    2.1188    0.0000   -1.4064 C   0  0  0  0  0  4           0  0  0
    3.6450    0.0000   -1.4064 C   0  0  0  0  0  4           0  0  0
    4.2378    0.0000   -2.8129 C   0  0  0  0  0  4           0  0  0
    5.7640    0.0000   -2.8129 C   0  0  0  0  0  4           0  0  0
    6.3567    0.0000   -4.2193 C   0  0  0  0  0  4           0  0  0
    7.8830    0.0000   -4.2193 C   0  0  0  0  0  4           0  0  0
    8.4757    0.0000   -5.6258 C   0  0  0  0  0  4           0  0  0
   10.0019    0.0000   -5.6258 C   0  0  0  0  0  4           0  0  0
   10.5947    0.0000   -7.0322 C   0  0  0  0  0  4           0  0  0
   12.1162    0.0000   -7.0310 C   0  0  0  0  0  4           0  0  0
  1  8  1  0     0  0
  2 17  2  0     0  0
  3 18  2  0     0  0
  4 19  2  0     0  0
  5  6  1  0     0  0
  5  9  1  0     0  0
  6 10  2  0     0  0
  7 11  1  0     0  0
  7 17  1  0     0  0
  7 18  1  0     0  0
  8 13  2  0     0  0
  8 14  1  0     0  0
  9 12  2  0     0  0
  9 17  1  0     0  0
 10 12  1  0     0  0
 10 19  1  0     0  0
 11 15  2  0     0  0
 11 16  1  0     0  0
 12 18  1  0     0  0
 13 15  1  0     0  0
 14 16  2  0     0  0
 19 20  1  0     0  0
 20 21  1  0     0  0
 21 22  1  0     0  0
 22 23  1  0     0  0
 23 24  1  0     0  0
 24 25  1  0     0  0
 25 26  1  0     0  0
 26 27  1  0     0  0
 27 28  1  0     0  0
 28 29  1  0     0  0
 29 30  1  0     0  0
 30 31  1  0     0  0
 31 32  1  0     0  0
 32 33  1  0     0  0
 33 34  1  0     0  0
 34 35  1  0     0  0
 35 36  1  0     0  0
M  END
> <standard_type>
IC50

> <# Confs.>
25

> <canonical_smiles>
O=C1C2=C(C(C(CCCCCCCCCCCCCCCCC)=O)=NN2)C(N1C3=CC=C(Br)C=C3)=O

> <standard_relation>
=

> <predicted_activity_value>
6.3979400086720375

> <actual_activity_value>
6.017728766960431

> <Compound>
9

> <publication_ID>
nan

> <standard_units>
nM

> hash
4718146281972516300

$$$$
9_
XXILIB    08252103493D 0   0.00000     0.00000

 36 38  0     1  0            999 V2000
   -1.6864    8.6995   11.8805 Br  0  0  0  0  0  1           0  0  0
   -3.6191    2.0622   10.8714 O   0  0  0  0  0  2           0  0  0
   -3.3712    4.2877    6.7385 O   0  0  0  0  0  2           0  0  0
   -4.1612    2.2750    4.4272 O   0  0  0  0  0  2           0  0  0
   -4.3653    0.1988    8.3915 N   0  0  0  0  0  3           0  0  0
   -4.5580   -0.0513    7.0742 N   0  0  0  0  0  3           0  0  0
   -3.3709    3.5562    9.0189 N   0  0  2  0  0  3           0  0  0
   -2.2039    7.1095   10.9973 C   0  0  0  0  0  4           0  0  0
   -3.9902    1.4719    8.6114 C   0  0  0  0  0  4           0  0  0
   -4.2891    1.1222    6.4577 C   0  0  0  0  0  4           0  0  0
   -2.9769    4.7488    9.6837 C   0  0  0  0  0  4           0  0  0
   -3.9290    2.0915    7.4022 C   0  0  0  0  0  4           0  0  0
   -1.7605    6.8612    9.7012 C   0  0  0  0  0  4           0  0  0
   -3.0263    6.1932   11.6472 C   0  0  0  0  0  4           0  0  0
   -2.1450    5.6860    9.0489 C   0  0  0  0  0  4           0  0  0
   -3.4105    5.0197   10.9925 C   0  0  0  0  0  4           0  0  0
   -3.6484    2.3434    9.6842 C   0  0  0  0  0  4           0  0  0
   -3.5269    3.4554    7.6167 C   0  0  0  0  0  4           0  0  0
   -4.4009    1.2175    5.0097 C   0  0  0  0  0  4           0  0  0
   -4.8306    0.0000    4.2191 C   0  0  0  0  0  4           0  0  0
   -4.2380    0.0000    2.8129 C   0  0  0  0  0  4           0  0  0
   -2.7117    0.0000    2.8129 C   0  0  0  0  0  4           0  0  0
   -2.1190    0.0000    1.4064 C   0  0  0  0  0  4           0  0  0
   -0.5927    0.0000    1.4064 C   0  0  0  0  0  4           0  0  0
    0.0000    0.0000    0.0000 C   0  0  0  0  0  4           0  0  0
    1.5260    0.0000    0.0000 C   0  0  0  0  0  4           0  0  0
    2.1188    0.0000   -1.4064 C   0  0  0  0  0  4           0  0  0
    3.6450    0.0000   -1.4064 C   0  0  0  0  0  4           0  0  0
    4.2378    0.0000   -2.8129 C   0  0  0  0  0  4           0  0  0
    5.7640    0.0000   -2.8129 C   0  0  0  0  0  4           0  0  0
    6.3567    0.0000   -4.2193 C   0  0  0  0  0  4           0  0  0
    7.8830    0.0000   -4.2193 C   0  0  0  0  0  4           0  0  0
    8.4757    0.0000   -5.6258 C   0  0  0  0  0  4           0  0  0
   10.0019    0.0000   -5.6258 C   0  0  0  0  0  4           0  0  0
   10.5947    0.0000   -7.0322 C   0  0  0  0  0  4           0  0  0
   12.1162    0.0000   -7.0310 C   0  0  0  0  0  4           0  0  0
  1  8  1  0     0  0
  2 17  2  0     0  0
  3 18  2  0     0  0
  4 19  2  0     0  0
  5  6  1  0     0  0
  5  9  1  0     0  0
  6 10  2  0     0  0
  7 11  1  0     0  0
  7 17  1  0     0  0
  7 18  1  0     0  0
  8 13  2  0     0  0
  8 14  1  0     0  0
  9 12  2  0     0  0
  9 17  1  0     0  0
 10 12  1  0     0  0
 10 19  1  0     0  0
 11 15  2  0     0  0
 11 16  1  0     0  0
 12 18  1  0     0  0
 13 15  1  0     0  0
 14 16  2  0     0  0
 19 20  1  0     0  0
 20 21  1  0     0  0
 21 22  1  0     0  0
 22 23  1  0     0  0
 23 24  1  0     0  0
 24 25  1  0     0  0
 25 26  1  0     0  0
 26 27  1  0     0  0
 27 28  1  0     0  0
 28 29  1  0     0  0
 29 30  1  0     0  0
 30 31  1  0     0  0
 31 32  1  0     0  0
 32 33  1  0     0  0
 33 34  1  0     0  0
 34 35  1  0     0  0
 35 36  1  0     0  0
M  END
> <standard_type>
IC50

> <# Confs.>
25

> <canonical_smiles>
O=C1C2=C(C(C(CCCCCCCCCCCCCCCCC)=O)=NN2)C(N1C3=CC=C(Br)C=C3)=O

> <standard_relation>
=

> <predicted_activity_value>
6.3979400086720375

> <actual_activity_value>
6.017728766960431

> <Compound>
9

> <publication_ID>
nan

> <standard_units>
nM

> hash
4718146281972516300

$$$$
9_
XXILIB    08252103493D 0   0.00000     0.00000

 36 38  0     1  0            999 V2000
   -0.6426   -8.5586   11.5300 Br  0  0  0  0  0  1           0  0  0
   -1.3136   -1.7523   10.0956 O   0  0  0  0  0  2           0  0  0
   -3.4336   -4.2960    6.7595 O   0  0  0  0  0  2           0  0  0
   -4.6802   -2.3448    4.6018 O   0  0  0  0  0  2           0  0  0
   -2.6587    0.0306    7.8172 N   0  0  0  0  0  3           0  0  0
   -3.3537    0.2132    6.6690 N   0  0  0  0  0  3           0  0  0
   -2.2512   -3.4057    8.6421 N   0  0  2  0  0  3           0  0  0
   -1.1365   -6.9660   10.6382 C   0  0  0  0  0  4           0  0  0
   -2.5133   -1.2734    8.1145 C   0  0  0  0  0  4           0  0  0
   -3.6481   -1.0360    6.2420 C   0  0  0  0  0  4           0  0  0
   -1.8748   -4.6007    9.3128 C   0  0  0  0  0  4           0  0  0
   -3.1323   -1.9844    7.1342 C   0  0  0  0  0  4           0  0  0
   -1.3616   -5.8032   11.3701 C   0  0  0  0  0  4           0  0  0
   -1.2726   -6.9624    9.2526 C   0  0  0  0  0  4           0  0  0
   -1.7281   -4.6269   10.7096 C   0  0  0  0  0  4           0  0  0
   -1.6405   -5.7855    8.5947 C   0  0  0  0  0  4           0  0  0
   -1.9306   -2.1124    9.1062 C   0  0  0  0  0  4           0  0  0
   -2.9894   -3.3831    7.4359 C   0  0  0  0  0  4           0  0  0
   -4.4009   -1.2175    5.0097 C   0  0  0  0  0  4           0  0  0
   -4.8306   -0.0000    4.2191 C   0  0  0  0  0  4           0  0  0
   -4.2380   -0.0000    2.8129 C   0  0  0  0  0  4           0  0  0
   -2.7117   -0.0000    2.8129 C   0  0  0  0  0  4           0  0  0
   -2.1190   -0.0000    1.4064 C   0  0  0  0  0  4           0  0  0
   -0.5927    0.0000    1.4064 C   0  0  0  0  0  4           0  0  0
    0.0000    0.0000    0.0000 C   0  0  0  0  0  4           0  0  0
    1.5260    0.0000    0.0000 C   0  0  0  0  0  4           0  0  0
    2.1188    0.0000   -1.4064 C   0  0  0  0  0  4           0  0  0
    3.6450    0.0000   -1.4064 C   0  0  0  0  0  4           0  0  0
    4.2378    0.0000   -2.8129 C   0  0  0  0  0  4           0  0  0
    5.7640    0.0000   -2.8129 C   0  0  0  0  0  4           0  0  0
    6.3567    0.0000   -4.2193 C   0  0  0  0  0  4           0  0  0
    7.8830    0.0000   -4.2193 C   0  0  0  0  0  4           0  0  0
    8.4757    0.0000   -5.6258 C   0  0  0  0  0  4           0  0  0
   10.0019    0.0000   -5.6258 C   0  0  0  0  0  4           0  0  0
   10.5947    0.0000   -7.0322 C   0  0  0  0  0  4           0  0  0
   12.1162    0.0000   -7.0310 C   0  0  0  0  0  4           0  0  0
  1  8  1  0     0  0
  2 17  2  0     0  0
  3 18  2  0     0  0
  4 19  2  0     0  0
  5  6  1  0     0  0
  5  9  1  0     0  0
  6 10  2  0     0  0
  7 11  1  0     0  0
  7 17  1  0     0  0
  7 18  1  0     0  0
  8 13  2  0     0  0
  8 14  1  0     0  0
  9 12  2  0     0  0
  9 17  1  0     0  0
 10 12  1  0     0  0
 10 19  1  0     0  0
 11 15  2  0     0  0
 11 16  1  0     0  0
 12 18  1  0     0  0
 13 15  1  0     0  0
 14 16  2  0     0  0
 19 20  1  0     0  0
 20 21  1  0     0  0
 21 22  1  0     0  0
 22 23  1  0     0  0
 23 24  1  0     0  0
 24 25  1  0     0  0
 25 26  1  0     0  0
 26 27  1  0     0  0
 27 28  1  0     0  0
 28 29  1  0     0  0
 29 30  1  0     0  0
 30 31  1  0     0  0
 31 32  1  0     0  0
 32 33  1  0     0  0
 33 34  1  0     0  0
 34 35  1  0     0  0
 35 36  1  0     0  0
M  END
> <standard_type>
IC50

> <# Confs.>
25

> <canonical_smiles>
O=C1C2=C(C(C(CCCCCCCCCCCCCCCCC)=O)=NN2)C(N1C3=CC=C(Br)C=C3)=O

> <standard_relation>
=

> <predicted_activity_value>
6.3979400086720375

> <actual_activity_value>
6.017728766960431

> <Compound>
9

> <publication_ID>
nan

> <standard_units>
nM

> hash
4718146281972516300

$$$$
9_
XXILIB    08252103493D 0   0.00000     0.00000

 36 38  0     1  0            999 V2000
  -16.7498   -0.1315    5.6955 Br  0  0  0  0  0  1           0  0  0
  -10.3896   -0.0716    8.5854 O   0  0  0  0  0  2           0  0  0
  -10.0036   -0.0248    3.9011 O   0  0  0  0  0  2           0  0  0
   -6.9384   -0.0000    3.1127 O   0  0  0  0  0  2           0  0  0
   -7.3647   -0.0286    7.5720 N   0  0  0  0  0  3           0  0  0
   -6.4029   -0.0124    6.6183 N   0  0  0  0  0  3           0  0  0
  -10.6496   -0.0546    6.2069 N   0  0  2  0  0  3           0  0  0
  -14.8657   -0.1048    5.8546 C   0  0  0  0  0  4           0  0  0
   -8.6001   -0.0385    7.0394 C   0  0  0  0  0  4           0  0  0
   -7.0792   -0.0127    5.4470 C   0  0  0  0  0  4           0  0  0
  -12.0657   -0.0694    6.0891 C   0  0  0  0  0  4           0  0  0
   -8.4589   -0.0272    5.6868 C   0  0  0  0  0  4           0  0  0
  -14.0964    0.5175    4.8752 C   0  0  0  0  0  4           0  0  0
  -14.2553   -0.7075    6.9511 C   0  0  0  0  0  4           0  0  0
  -12.7036    0.5353    4.9933 C   0  0  0  0  0  4           0  0  0
  -12.8624   -0.6897    7.0663 C   0  0  0  0  0  4           0  0  0
   -9.9659   -0.0567    7.4411 C   0  0  0  0  0  4           0  0  0
   -9.7711   -0.0354    5.0986 C   0  0  0  0  0  4           0  0  0
   -6.3442   -0.0000    4.1907 C   0  0  0  0  0  4           0  0  0
   -4.8306    0.0000    4.2191 C   0  0  0  0  0  4           0  0  0
   -4.2380   -0.0000    2.8129 C   0  0  0  0  0  4           0  0  0
   -2.7117    0.0000    2.8129 C   0  0  0  0  0  4           0  0  0
   -2.1190   -0.0000    1.4064 C   0  0  0  0  0  4           0  0  0
   -0.5927    0.0000    1.4064 C   0  0  0  0  0  4           0  0  0
    0.0000   -0.0000    0.0000 C   0  0  0  0  0  4           0  0  0
    1.5260    0.0000    0.0000 C   0  0  0  0  0  4           0  0  0
    2.1188    0.0000   -1.4064 C   0  0  0  0  0  4           0  0  0
    3.6450    0.0000   -1.4064 C   0  0  0  0  0  4           0  0  0
    4.2378    0.0000   -2.8129 C   0  0  0  0  0  4           0  0  0
    5.7640    0.0000   -2.8129 C   0  0  0  0  0  4           0  0  0
    6.3567    0.0000   -4.2193 C   0  0  0  0  0  4           0  0  0
    7.8830    0.0000   -4.2193 C   0  0  0  0  0  4           0  0  0
    8.4757    0.0000   -5.6258 C   0  0  0  0  0  4           0  0  0
   10.0019    0.0000   -5.6258 C   0  0  0  0  0  4           0  0  0
   10.5947    0.0000   -7.0322 C   0  0  0  0  0  4           0  0  0
   10.1775    1.2147   -7.8480 C   0  0  0  0  0  4           0  0  0
  1  8  1  0     0  0
  2 17  2  0     0  0
  3 18  2  0     0  0
  4 19  2  0     0  0
  5  6  1  0     0  0
  5  9  1  0     0  0
  6 10  2  0     0  0
  7 11  1  0     0  0
  7 17  1  0     0  0
  7 18  1  0     0  0
  8 13  2  0     0  0
  8 14  1  0     0  0
  9 12  2  0     0  0
  9 17  1  0     0  0
 10 12  1  0     0  0
 10 19  1  0     0  0
 11 15  2  0     0  0
 11 16  1  0     0  0
 12 18  1  0     0  0
 13 15  1  0     0  0
 14 16  2  0     0  0
 19 20  1  0     0  0
 20 21  1  0     0  0
 21 22  1  0     0  0
 22 23  1  0     0  0
 23 24  1  0     0  0
 24 25  1  0     0  0
 25 26  1  0     0  0
 26 27  1  0     0  0
 27 28  1  0     0  0
 28 29  1  0     0  0
 29 30  1  0     0  0
 30 31  1  0     0  0
 31 32  1  0     0  0
 32 33  1  0     0  0
 33 34  1  0     0  0
 34 35  1  0     0  0
 35 36  1  0     0  0
M  END
> <standard_type>
IC50

> <# Confs.>
25

> <canonical_smiles>
O=C1C2=C(C(C(CCCCCCCCCCCCCCCCC)=O)=NN2)C(N1C3=CC=C(Br)C=C3)=O

> <standard_relation>
=

> <predicted_activity_value>
6.3979400086720375

> <actual_activity_value>
6.017728766960431

> <Compound>
9

> <publication_ID>
nan

> <standard_units>
nM

> hash
4718146281972516300

$$$$
9_
XXILIB    08252103493D 0   0.00000     0.00000

 36 38  0     1  0            999 V2000
    1.4447   11.5072   13.3579 Br  0  0  0  0  0  1           0  0  0
   -1.8216    5.4397   12.1964 O   0  0  0  0  0  2           0  0  0
    0.6246    6.6837    8.3803 O   0  0  0  0  0  2           0  0  0
    0.2285    4.4903    6.1332 O   0  0  0  0  0  2           0  0  0
   -2.0715    3.3450    9.8028 N   0  0  0  0  0  3           0  0  0
   -1.8098    2.8901    8.5540 N   0  0  0  0  0  3           0  0  0
   -0.4601    6.4386   10.5012 N   0  0  2  0  0  3           0  0  0
    0.8534    9.9423   12.4763 C   0  0  0  0  0  4           0  0  0
   -1.4553    4.5150   10.0506 C   0  0  0  0  0  4           0  0  0
   -0.9961    3.8239    8.0106 C   0  0  0  0  0  4           0  0  0
   -0.0210    7.6157   11.1653 C   0  0  0  0  0  4           0  0  0
   -0.7587    4.8515    8.9320 C   0  0  0  0  0  4           0  0  0
    0.5754    8.7946   13.2138 C   0  0  0  0  0  4           0  0  0
    0.6980    9.9443   11.0928 C   0  0  0  0  0  4           0  0  0
    0.1397    7.6380   12.5606 C   0  0  0  0  0  4           0  0  0
    0.2636    8.7862   10.4419 C   0  0  0  0  0  4           0  0  0
   -1.3115    5.4790   11.0885 C   0  0  0  0  0  4           0  0  0
   -0.0903    6.1007    9.1785 C   0  0  0  0  0  4           0  0  0
   -0.5128    3.6536    6.6483 C   0  0  0  0  0  4           0  0  0
   -0.9425    2.4360    5.8578 C   0  0  0  0  0  4           0  0  0
   -0.3498    2.4360    4.4515 C   0  0  0  0  0  4           0  0  0
   -0.7676    1.2180    3.6322 C   0  0  0  0  0  4           0  0  0
   -0.1749    1.2180    2.2258 C   0  0  0  0  0  4           0  0  0
   -0.5927    0.0000    1.4064 C   0  0  0  0  0  4           0  0  0
    0.0000    0.0000    0.0000 C   0  0  0  0  0  4           0  0  0
    1.5260    0.0000    0.0000 C   0  0  0  0  0  4           0  0  0
    2.1188    0.0000   -1.4064 C   0  0  0  0  0  4           0  0  0
    3.6450    0.0000   -1.4064 C   0  0  0  0  0  4           0  0  0
    4.2378    0.0000   -2.8129 C   0  0  0  0  0  4           0  0  0
    5.7640    0.0000   -2.8129 C   0  0  0  0  0  4           0  0  0
    6.3567    0.0000   -4.2193 C   0  0  0  0  0  4           0  0  0
    7.8830    0.0000   -4.2193 C   0  0  0  0  0  4           0  0  0
    8.4757    0.0000   -5.6258 C   0  0  0  0  0  4           0  0  0
   10.0019    0.0000   -5.6258 C   0  0  0  0  0  4           0  0  0
   10.5947    0.0000   -7.0322 C   0  0  0  0  0  4           0  0  0
   12.1162    0.0000   -7.0310 C   0  0  0  0  0  4           0  0  0
  1  8  1  0     0  0
  2 17  2  0     0  0
  3 18  2  0     0  0
  4 19  2  0     0  0
  5  6  1  0     0  0
  5  9  1  0     0  0
  6 10  2  0     0  0
  7 11  1  0     0  0
  7 17  1  0     0  0
  7 18  1  0     0  0
  8 13  2  0     0  0
  8 14  1  0     0  0
  9 12  2  0     0  0
  9 17  1  0     0  0
 10 12  1  0     0  0
 10 19  1  0     0  0
 11 15  2  0     0  0
 11 16  1  0     0  0
 12 18  1  0     0  0
 13 15  1  0     0  0
 14 16  2  0     0  0
 19 20  1  0     0  0
 20 21  1  0     0  0
 21 22  1  0     0  0
 22 23  1  0     0  0
 23 24  1  0     0  0
 24 25  1  0     0  0
 25 26  1  0     0  0
 26 27  1  0     0  0
 27 28  1  0     0  0
 28 29  1  0     0  0
 29 30  1  0     0  0
 30 31  1  0     0  0
 31 32  1  0     0  0
 32 33  1  0     0  0
 33 34  1  0     0  0
 34 35  1  0     0  0
 35 36  1  0     0  0
M  END
> <standard_type>
IC50

> <# Confs.>
25

> <canonical_smiles>
O=C1C2=C(C(C(CCCCCCCCCCCCCCCCC)=O)=NN2)C(N1C3=CC=C(Br)C=C3)=O

> <standard_relation>
=

> <predicted_activity_value>
6.3979400086720375

> <actual_activity_value>
6.017728766960431

> <Compound>
9

> <publication_ID>
nan

> <standard_units>
nM

> hash
4718146281972516300

$$$$
9_
XXILIB    08252103493D 0   0.00000     0.00000

 36 38  0     1  0            999 V2000
  -16.7496   -0.1080    5.6901 Br  0  0  0  0  0  1           0  0  0
  -10.3896   -0.0716    8.5854 O   0  0  0  0  0  2           0  0  0
  -10.0036   -0.0248    3.9011 O   0  0  0  0  0  2           0  0  0
   -6.9384   -0.0000    3.1127 O   0  0  0  0  0  2           0  0  0
   -7.3647   -0.0286    7.5720 N   0  0  0  0  0  3           0  0  0
   -6.4029   -0.0124    6.6183 N   0  0  0  0  0  3           0  0  0
  -10.6496   -0.0546    6.2069 N   0  0  2  0  0  3           0  0  0
  -14.8656   -0.0939    5.8517 C   0  0  0  0  0  4           0  0  0
   -8.6001   -0.0385    7.0394 C   0  0  0  0  0  4           0  0  0
   -7.0792   -0.0127    5.4470 C   0  0  0  0  0  4           0  0  0
  -12.0657   -0.0694    6.0891 C   0  0  0  0  0  4           0  0  0
   -8.4589   -0.0272    5.6868 C   0  0  0  0  0  4           0  0  0
  -14.2695    0.5061    6.9576 C   0  0  0  0  0  4           0  0  0
  -14.0820   -0.6843    4.8640 C   0  0  0  0  0  4           0  0  0
  -12.8765    0.5170    7.0751 C   0  0  0  0  0  4           0  0  0
  -12.6894   -0.6708    4.9829 C   0  0  0  0  0  4           0  0  0
   -9.9659   -0.0567    7.4411 C   0  0  0  0  0  4           0  0  0
   -9.7711   -0.0354    5.0986 C   0  0  0  0  0  4           0  0  0
   -6.3442   -0.0000    4.1907 C   0  0  0  0  0  4           0  0  0
   -4.8306    0.0000    4.2191 C   0  0  0  0  0  4           0  0  0
   -4.2380   -0.0000    2.8129 C   0  0  0  0  0  4           0  0  0
   -2.7117    0.0000    2.8129 C   0  0  0  0  0  4           0  0  0
   -2.1190   -0.0000    1.4064 C   0  0  0  0  0  4           0  0  0
   -0.5927    0.0000    1.4064 C   0  0  0  0  0  4           0  0  0
    0.0000   -0.0000    0.0000 C   0  0  0  0  0  4           0  0  0
    1.5260   -0.0000    0.0000 C   0  0  0  0  0  4           0  0  0
    2.1188    0.0000   -1.4064 C   0  0  0  0  0  4           0  0  0
    3.6450    0.0000   -1.4064 C   0  0  0  0  0  4           0  0  0
    4.2378   -1.2180   -0.7032 C   0  0  0  0  0  4           0  0  0
    5.7640   -1.2180   -0.7032 C   0  0  0  0  0  4           0  0  0
    6.3567   -2.4360    0.0000 C   0  0  0  0  0  4           0  0  0
    7.8830   -2.4360    0.0000 C   0  0  0  0  0  4           0  0  0
    8.4757   -3.6540    0.7032 C   0  0  0  0  0  4           0  0  0
   10.0019   -3.6540    0.7032 C   0  0  0  0  0  4           0  0  0
   10.5947   -4.8721    1.4064 C   0  0  0  0  0  4           0  0  0
   12.1162   -4.8710    1.4058 C   0  0  0  0  0  4           0  0  0
  1  8  1  0     0  0
  2 17  2  0     0  0
  3 18  2  0     0  0
  4 19  2  0     0  0
  5  6  1  0     0  0
  5  9  1  0     0  0
  6 10  2  0     0  0
  7 11  1  0     0  0
  7 17  1  0     0  0
  7 18  1  0     0  0
  8 13  2  0     0  0
  8 14  1  0     0  0
  9 12  2  0     0  0
  9 17  1  0     0  0
 10 12  1  0     0  0
 10 19  1  0     0  0
 11 15  2  0     0  0
 11 16  1  0     0  0
 12 18  1  0     0  0
 13 15  1  0     0  0
 14 16  2  0     0  0
 19 20  1  0     0  0
 20 21  1  0     0  0
 21 22  1  0     0  0
 22 23  1  0     0  0
 23 24  1  0     0  0
 24 25  1  0     0  0
 25 26  1  0     0  0
 26 27  1  0     0  0
 27 28  1  0     0  0
 28 29  1  0     0  0
 29 30  1  0     0  0
 30 31  1  0     0  0
 31 32  1  0     0  0
 32 33  1  0     0  0
 33 34  1  0     0  0
 34 35  1  0     0  0
 35 36  1  0     0  0
M  END
> <standard_type>
IC50

> <# Confs.>
25

> <canonical_smiles>
O=C1C2=C(C(C(CCCCCCCCCCCCCCCCC)=O)=NN2)C(N1C3=CC=C(Br)C=C3)=O

> <standard_relation>
=

> <predicted_activity_value>
6.3979400086720375

> <actual_activity_value>
6.017728766960431

> <Compound>
9

> <publication_ID>
nan

> <standard_units>
nM

> hash
4718146281972516300

$$$$
9_
XXILIB    08252103493D 0   0.00000     0.00000

 36 38  0     1  0            999 V2000
  -16.7496   -0.1080    5.6901 Br  0  0  0  0  0  1           0  0  0
  -10.3896   -0.0716    8.5854 O   0  0  0  0  0  2           0  0  0
  -10.0036   -0.0248    3.9011 O   0  0  0  0  0  2           0  0  0
   -6.9384   -0.0000    3.1127 O   0  0  0  0  0  2           0  0  0
   -7.3647   -0.0286    7.5720 N   0  0  0  0  0  3           0  0  0
   -6.4029   -0.0124    6.6183 N   0  0  0  0  0  3           0  0  0
  -10.6496   -0.0546    6.2069 N   0  0  2  0  0  3           0  0  0
  -14.8656   -0.0939    5.8517 C   0  0  0  0  0  4           0  0  0
   -8.6001   -0.0385    7.0394 C   0  0  0  0  0  4           0  0  0
   -7.0792   -0.0127    5.4470 C   0  0  0  0  0  4           0  0  0
  -12.0657   -0.0694    6.0891 C   0  0  0  0  0  4           0  0  0
   -8.4589   -0.0272    5.6868 C   0  0  0  0  0  4           0  0  0
  -14.2695    0.5061    6.9576 C   0  0  0  0  0  4           0  0  0
  -14.0820   -0.6843    4.8640 C   0  0  0  0  0  4           0  0  0
  -12.8765    0.5170    7.0751 C   0  0  0  0  0  4           0  0  0
  -12.6894   -0.6708    4.9829 C   0  0  0  0  0  4           0  0  0
   -9.9659   -0.0567    7.4411 C   0  0  0  0  0  4           0  0  0
   -9.7711   -0.0354    5.0986 C   0  0  0  0  0  4           0  0  0
   -6.3442   -0.0000    4.1907 C   0  0  0  0  0  4           0  0  0
   -4.8306    0.0000    4.2191 C   0  0  0  0  0  4           0  0  0
   -4.2380   -0.0000    2.8129 C   0  0  0  0  0  4           0  0  0
   -2.7117    0.0000    2.8129 C   0  0  0  0  0  4           0  0  0
   -2.1190   -0.0000    1.4064 C   0  0  0  0  0  4           0  0  0
   -0.5927    0.0000    1.4064 C   0  0  0  0  0  4           0  0  0
    0.0000   -0.0000    0.0000 C   0  0  0  0  0  4           0  0  0
    1.5260   -0.0000   -0.0000 C   0  0  0  0  0  4           0  0  0
    2.1188    0.0000   -1.4064 C   0  0  0  0  0  4           0  0  0
    3.6450   -0.0000   -1.4064 C   0  0  0  0  0  4           0  0  0
    4.2378    0.0000   -2.8129 C   0  0  0  0  0  4           0  0  0
    3.8199    1.2180   -3.6322 C   0  0  0  0  0  4           0  0  0
    4.4127    1.2180   -5.0386 C   0  0  0  0  0  4           0  0  0
    3.9948    2.4360   -5.8580 C   0  0  0  0  0  4           0  0  0
    4.5876    2.4360   -7.2644 C   0  0  0  0  0  4           0  0  0
    4.1697    3.6540   -8.0837 C   0  0  0  0  0  4           0  0  0
    4.7625    3.6540   -9.4902 C   0  0  0  0  0  4           0  0  0
    4.3453    4.8687  -10.3060 C   0  0  0  0  0  4           0  0  0
  1  8  1  0     0  0
  2 17  2  0     0  0
  3 18  2  0     0  0
  4 19  2  0     0  0
  5  6  1  0     0  0
  5  9  1  0     0  0
  6 10  2  0     0  0
  7 11  1  0     0  0
  7 17  1  0     0  0
  7 18  1  0     0  0
  8 13  2  0     0  0
  8 14  1  0     0  0
  9 12  2  0     0  0
  9 17  1  0     0  0
 10 12  1  0     0  0
 10 19  1  0     0  0
 11 15  2  0     0  0
 11 16  1  0     0  0
 12 18  1  0     0  0
 13 15  1  0     0  0
 14 16  2  0     0  0
 19 20  1  0     0  0
 20 21  1  0     0  0
 21 22  1  0     0  0
 22 23  1  0     0  0
 23 24  1  0     0  0
 24 25  1  0     0  0
 25 26  1  0     0  0
 26 27  1  0     0  0
 27 28  1  0     0  0
 28 29  1  0     0  0
 29 30  1  0     0  0
 30 31  1  0     0  0
 31 32  1  0     0  0
 32 33  1  0     0  0
 33 34  1  0     0  0
 34 35  1  0     0  0
 35 36  1  0     0  0
M  END
> <standard_type>
IC50

> <# Confs.>
25

> <canonical_smiles>
O=C1C2=C(C(C(CCCCCCCCCCCCCCCCC)=O)=NN2)C(N1C3=CC=C(Br)C=C3)=O

> <standard_relation>
=

> <predicted_activity_value>
6.3979400086720375

> <actual_activity_value>
6.017728766960431

> <Compound>
9

> <publication_ID>
nan

> <standard_units>
nM

> hash
4718146281972516300

$$$$
9_
XXILIB    08252103493D 0   0.00000     0.00000

 36 38  0     1  0            999 V2000
  -16.7496   -0.1080    5.6901 Br  0  0  0  0  0  1           0  0  0
  -10.3896   -0.0716    8.5854 O   0  0  0  0  0  2           0  0  0
  -10.0036   -0.0248    3.9011 O   0  0  0  0  0  2           0  0  0
   -6.9384   -0.0000    3.1127 O   0  0  0  0  0  2           0  0  0
   -7.3647   -0.0286    7.5720 N   0  0  0  0  0  3           0  0  0
   -6.4029   -0.0124    6.6183 N   0  0  0  0  0  3           0  0  0
  -10.6496   -0.0546    6.2069 N   0  0  2  0  0  3           0  0  0
  -14.8656   -0.0939    5.8517 C   0  0  0  0  0  4           0  0  0
   -8.6001   -0.0385    7.0394 C   0  0  0  0  0  4           0  0  0
   -7.0792   -0.0127    5.4470 C   0  0  0  0  0  4           0  0  0
  -12.0657   -0.0694    6.0891 C   0  0  0  0  0  4           0  0  0
   -8.4589   -0.0272    5.6868 C   0  0  0  0  0  4           0  0  0
  -14.2695    0.5061    6.9576 C   0  0  0  0  0  4           0  0  0
  -14.0820   -0.6843    4.8640 C   0  0  0  0  0  4           0  0  0
  -12.8765    0.5170    7.0751 C   0  0  0  0  0  4           0  0  0
  -12.6894   -0.6708    4.9829 C   0  0  0  0  0  4           0  0  0
   -9.9659   -0.0567    7.4411 C   0  0  0  0  0  4           0  0  0
   -9.7711   -0.0354    5.0986 C   0  0  0  0  0  4           0  0  0
   -6.3442   -0.0000    4.1907 C   0  0  0  0  0  4           0  0  0
   -4.8306    0.0000    4.2191 C   0  0  0  0  0  4           0  0  0
   -4.2380   -0.0000    2.8129 C   0  0  0  0  0  4           0  0  0
   -2.7117    0.0000    2.8129 C   0  0  0  0  0  4           0  0  0
   -2.1190   -0.0000    1.4064 C   0  0  0  0  0  4           0  0  0
   -0.5927    0.0000    1.4064 C   0  0  0  0  0  4           0  0  0
    0.0000   -0.0000    0.0000 C   0  0  0  0  0  4           0  0  0
    1.5260   -0.0000    0.0000 C   0  0  0  0  0  4           0  0  0
    2.1188    0.0000   -1.4064 C   0  0  0  0  0  4           0  0  0
    1.7009    1.2180   -2.2258 C   0  0  0  0  0  4           0  0  0
    2.2937    1.2180   -3.6322 C   0  0  0  0  0  4           0  0  0
    1.8759    2.4360   -4.4515 C   0  0  0  0  0  4           0  0  0
    2.4686    2.4360   -5.8580 C   0  0  0  0  0  4           0  0  0
    2.0508    3.6540   -6.6773 C   0  0  0  0  0  4           0  0  0
    2.6435    3.6540   -8.0837 C   0  0  0  0  0  4           0  0  0
    2.2257    4.8721   -8.9030 C   0  0  0  0  0  4           0  0  0
    2.8184    4.8721  -10.3095 C   0  0  0  0  0  4           0  0  0
    2.4012    6.0867  -11.1253 C   0  0  0  0  0  4           0  0  0
  1  8  1  0     0  0
  2 17  2  0     0  0
  3 18  2  0     0  0
  4 19  2  0     0  0
  5  6  1  0     0  0
  5  9  1  0     0  0
  6 10  2  0     0  0
  7 11  1  0     0  0
  7 17  1  0     0  0
  7 18  1  0     0  0
  8 13  2  0     0  0
  8 14  1  0     0  0
  9 12  2  0     0  0
  9 17  1  0     0  0
 10 12  1  0     0  0
 10 19  1  0     0  0
 11 15  2  0     0  0
 11 16  1  0     0  0
 12 18  1  0     0  0
 13 15  1  0     0  0
 14 16  2  0     0  0
 19 20  1  0     0  0
 20 21  1  0     0  0
 21 22  1  0     0  0
 22 23  1  0     0  0
 23 24  1  0     0  0
 24 25  1  0     0  0
 25 26  1  0     0  0
 26 27  1  0     0  0
 27 28  1  0     0  0
 28 29  1  0     0  0
 29 30  1  0     0  0
 30 31  1  0     0  0
 31 32  1  0     0  0
 32 33  1  0     0  0
 33 34  1  0     0  0
 34 35  1  0     0  0
 35 36  1  0     0  0
M  END
> <standard_type>
IC50

> <# Confs.>
25

> <canonical_smiles>
O=C1C2=C(C(C(CCCCCCCCCCCCCCCCC)=O)=NN2)C(N1C3=CC=C(Br)C=C3)=O

> <standard_relation>
=

> <predicted_activity_value>
6.3979400086720375

> <actual_activity_value>
6.017728766960431

> <Compound>
9

> <publication_ID>
nan

> <standard_units>
nM

> hash
4718146281972516300

$$$$
9_
XXILIB    08252103493D 0   0.00000     0.00000

 36 38  0     1  0            999 V2000
  -16.7496   -0.1080    5.6901 Br  0  0  0  0  0  1           0  0  0
  -10.3896   -0.0716    8.5854 O   0  0  0  0  0  2           0  0  0
  -10.0036   -0.0248    3.9011 O   0  0  0  0  0  2           0  0  0
   -6.9384   -0.0000    3.1127 O   0  0  0  0  0  2           0  0  0
   -7.3647   -0.0286    7.5720 N   0  0  0  0  0  3           0  0  0
   -6.4029   -0.0124    6.6183 N   0  0  0  0  0  3           0  0  0
  -10.6496   -0.0546    6.2069 N   0  0  2  0  0  3           0  0  0
  -14.8656   -0.0939    5.8517 C   0  0  0  0  0  4           0  0  0
   -8.6001   -0.0385    7.0394 C   0  0  0  0  0  4           0  0  0
   -7.0792   -0.0127    5.4470 C   0  0  0  0  0  4           0  0  0
  -12.0657   -0.0694    6.0891 C   0  0  0  0  0  4           0  0  0
   -8.4589   -0.0272    5.6868 C   0  0  0  0  0  4           0  0  0
  -14.2695    0.5061    6.9576 C   0  0  0  0  0  4           0  0  0
  -14.0820   -0.6843    4.8640 C   0  0  0  0  0  4           0  0  0
  -12.8765    0.5170    7.0751 C   0  0  0  0  0  4           0  0  0
  -12.6894   -0.6708    4.9829 C   0  0  0  0  0  4           0  0  0
   -9.9659   -0.0567    7.4411 C   0  0  0  0  0  4           0  0  0
   -9.7711   -0.0354    5.0986 C   0  0  0  0  0  4           0  0  0
   -6.3442   -0.0000    4.1907 C   0  0  0  0  0  4           0  0  0
   -4.8306    0.0000    4.2191 C   0  0  0  0  0  4           0  0  0
   -4.2380   -0.0000    2.8129 C   0  0  0  0  0  4           0  0  0
   -2.7117    0.0000    2.8129 C   0  0  0  0  0  4           0  0  0
   -2.1190   -0.0000    1.4064 C   0  0  0  0  0  4           0  0  0
   -0.5927    0.0000    1.4064 C   0  0  0  0  0  4           0  0  0
    0.0000   -0.0000    0.0000 C   0  0  0  0  0  4           0  0  0
    1.5260    0.0000   -0.0000 C   0  0  0  0  0  4           0  0  0
    2.1188   -1.2180    0.7032 C   0  0  0  0  0  4           0  0  0
    3.6450   -1.2180    0.7032 C   0  0  0  0  0  4           0  0  0
    4.2378   -2.4360    1.4064 C   0  0  0  0  0  4           0  0  0
    5.7640   -2.4360    1.4064 C   0  0  0  0  0  4           0  0  0
    6.3567   -3.6540    2.1097 C   0  0  0  0  0  4           0  0  0
    7.8830   -3.6540    2.1097 C   0  0  0  0  0  4           0  0  0
    8.4757   -4.8721    2.8129 C   0  0  0  0  0  4           0  0  0
   10.0019   -4.8721    2.8129 C   0  0  0  0  0  4           0  0  0
   10.5947   -6.0901    3.5161 C   0  0  0  0  0  4           0  0  0
   12.1162   -6.0890    3.5155 C   0  0  0  0  0  4           0  0  0
  1  8  1  0     0  0
  2 17  2  0     0  0
  3 18  2  0     0  0
  4 19  2  0     0  0
  5  6  1  0     0  0
  5  9  1  0     0  0
  6 10  2  0     0  0
  7 11  1  0     0  0
  7 17  1  0     0  0
  7 18  1  0     0  0
  8 13  2  0     0  0
  8 14  1  0     0  0
  9 12  2  0     0  0
  9 17  1  0     0  0
 10 12  1  0     0  0
 10 19  1  0     0  0
 11 15  2  0     0  0
 11 16  1  0     0  0
 12 18  1  0     0  0
 13 15  1  0     0  0
 14 16  2  0     0  0
 19 20  1  0     0  0
 20 21  1  0     0  0
 21 22  1  0     0  0
 22 23  1  0     0  0
 23 24  1  0     0  0
 24 25  1  0     0  0
 25 26  1  0     0  0
 26 27  1  0     0  0
 27 28  1  0     0  0
 28 29  1  0     0  0
 29 30  1  0     0  0
 30 31  1  0     0  0
 31 32  1  0     0  0
 32 33  1  0     0  0
 33 34  1  0     0  0
 34 35  1  0     0  0
 35 36  1  0     0  0
M  END
> <standard_type>
IC50

> <# Confs.>
25

> <canonical_smiles>
O=C1C2=C(C(C(CCCCCCCCCCCCCCCCC)=O)=NN2)C(N1C3=CC=C(Br)C=C3)=O

> <standard_relation>
=

> <predicted_activity_value>
6.3979400086720375

> <actual_activity_value>
6.017728766960431

> <Compound>
9

> <publication_ID>
nan

> <standard_units>
nM

> hash
4718146281972516300

$$$$
9_
XXILIB    08252103493D 0   0.00000     0.00000

 36 38  0     1  0            999 V2000
  -16.7496   -0.1080    5.6901 Br  0  0  0  0  0  1           0  0  0
  -10.3896   -0.0716    8.5854 O   0  0  0  0  0  2           0  0  0
  -10.0036   -0.0248    3.9011 O   0  0  0  0  0  2           0  0  0
   -6.9384   -0.0000    3.1127 O   0  0  0  0  0  2           0  0  0
   -7.3647   -0.0286    7.5720 N   0  0  0  0  0  3           0  0  0
   -6.4029   -0.0124    6.6183 N   0  0  0  0  0  3           0  0  0
  -10.6496   -0.0546    6.2069 N   0  0  2  0  0  3           0  0  0
  -14.8656   -0.0939    5.8517 C   0  0  0  0  0  4           0  0  0
   -8.6001   -0.0385    7.0394 C   0  0  0  0  0  4           0  0  0
   -7.0792   -0.0127    5.4470 C   0  0  0  0  0  4           0  0  0
  -12.0657   -0.0694    6.0891 C   0  0  0  0  0  4           0  0  0
   -8.4589   -0.0272    5.6868 C   0  0  0  0  0  4           0  0  0
  -14.2695    0.5061    6.9576 C   0  0  0  0  0  4           0  0  0
  -14.0820   -0.6843    4.8640 C   0  0  0  0  0  4           0  0  0
  -12.8765    0.5170    7.0751 C   0  0  0  0  0  4           0  0  0
  -12.6894   -0.6708    4.9829 C   0  0  0  0  0  4           0  0  0
   -9.9659   -0.0567    7.4411 C   0  0  0  0  0  4           0  0  0
   -9.7711   -0.0354    5.0986 C   0  0  0  0  0  4           0  0  0
   -6.3442   -0.0000    4.1907 C   0  0  0  0  0  4           0  0  0
   -4.8306    0.0000    4.2191 C   0  0  0  0  0  4           0  0  0
   -4.2380   -0.0000    2.8129 C   0  0  0  0  0  4           0  0  0
   -2.7117    0.0000    2.8129 C   0  0  0  0  0  4           0  0  0
   -2.1190   -0.0000    1.4064 C   0  0  0  0  0  4           0  0  0
   -0.5927    0.0000    1.4064 C   0  0  0  0  0  4           0  0  0
    0.0000   -0.0000    0.0000 C   0  0  0  0  0  4           0  0  0
    1.5260    0.0000    0.0000 C   0  0  0  0  0  4           0  0  0
    2.1188    0.0000   -1.4064 C   0  0  0  0  0  4           0  0  0
    3.6450   -0.0000   -1.4064 C   0  0  0  0  0  4           0  0  0
    4.2378   -0.0000   -2.8129 C   0  0  0  0  0  4           0  0  0
    5.7640   -0.0000   -2.8129 C   0  0  0  0  0  4           0  0  0
    6.3567   -1.2180   -2.1097 C   0  0  0  0  0  4           0  0  0
    7.8830   -1.2180   -2.1097 C   0  0  0  0  0  4           0  0  0
    8.4757   -2.4360   -1.4064 C   0  0  0  0  0  4           0  0  0
   10.0019   -2.4360   -1.4064 C   0  0  0  0  0  4           0  0  0
   10.5947   -3.6540   -0.7032 C   0  0  0  0  0  4           0  0  0
   12.1162   -3.6530   -0.7039 C   0  0  0  0  0  4           0  0  0
  1  8  1  0     0  0
  2 17  2  0     0  0
  3 18  2  0     0  0
  4 19  2  0     0  0
  5  6  1  0     0  0
  5  9  1  0     0  0
  6 10  2  0     0  0
  7 11  1  0     0  0
  7 17  1  0     0  0
  7 18  1  0     0  0
  8 13  2  0     0  0
  8 14  1  0     0  0
  9 12  2  0     0  0
  9 17  1  0     0  0
 10 12  1  0     0  0
 10 19  1  0     0  0
 11 15  2  0     0  0
 11 16  1  0     0  0
 12 18  1  0     0  0
 13 15  1  0     0  0
 14 16  2  0     0  0
 19 20  1  0     0  0
 20 21  1  0     0  0
 21 22  1  0     0  0
 22 23  1  0     0  0
 23 24  1  0     0  0
 24 25  1  0     0  0
 25 26  1  0     0  0
 26 27  1  0     0  0
 27 28  1  0     0  0
 28 29  1  0     0  0
 29 30  1  0     0  0
 30 31  1  0     0  0
 31 32  1  0     0  0
 32 33  1  0     0  0
 33 34  1  0     0  0
 34 35  1  0     0  0
 35 36  1  0     0  0
M  END
> <standard_type>
IC50

> <# Confs.>
25

> <canonical_smiles>
O=C1C2=C(C(C(CCCCCCCCCCCCCCCCC)=O)=NN2)C(N1C3=CC=C(Br)C=C3)=O

> <standard_relation>
=

> <predicted_activity_value>
6.3979400086720375

> <actual_activity_value>
6.017728766960431

> <Compound>
9

> <publication_ID>
nan

> <standard_units>
nM

> hash
4718146281972516300

$$$$
9_
XXILIB    08252103493D 0   0.00000     0.00000

 36 38  0     1  0            999 V2000
  -16.7496   -0.1080    5.6901 Br  0  0  0  0  0  1           0  0  0
  -10.3896   -0.0716    8.5854 O   0  0  0  0  0  2           0  0  0
  -10.0036   -0.0248    3.9011 O   0  0  0  0  0  2           0  0  0
   -6.9384   -0.0000    3.1127 O   0  0  0  0  0  2           0  0  0
   -7.3647   -0.0286    7.5720 N   0  0  0  0  0  3           0  0  0
   -6.4029   -0.0124    6.6183 N   0  0  0  0  0  3           0  0  0
  -10.6496   -0.0546    6.2069 N   0  0  2  0  0  3           0  0  0
  -14.8656   -0.0939    5.8517 C   0  0  0  0  0  4           0  0  0
   -8.6001   -0.0385    7.0394 C   0  0  0  0  0  4           0  0  0
   -7.0792   -0.0127    5.4470 C   0  0  0  0  0  4           0  0  0
  -12.0657   -0.0694    6.0891 C   0  0  0  0  0  4           0  0  0
   -8.4589   -0.0272    5.6868 C   0  0  0  0  0  4           0  0  0
  -14.2695    0.5061    6.9576 C   0  0  0  0  0  4           0  0  0
  -14.0820   -0.6843    4.8640 C   0  0  0  0  0  4           0  0  0
  -12.8765    0.5170    7.0751 C   0  0  0  0  0  4           0  0  0
  -12.6894   -0.6708    4.9829 C   0  0  0  0  0  4           0  0  0
   -9.9659   -0.0567    7.4411 C   0  0  0  0  0  4           0  0  0
   -9.7711   -0.0354    5.0986 C   0  0  0  0  0  4           0  0  0
   -6.3442   -0.0000    4.1907 C   0  0  0  0  0  4           0  0  0
   -4.8306    0.0000    4.2191 C   0  0  0  0  0  4           0  0  0
   -4.2380   -0.0000    2.8129 C   0  0  0  0  0  4           0  0  0
   -2.7117    0.0000    2.8129 C   0  0  0  0  0  4           0  0  0
   -2.1190   -0.0000    1.4064 C   0  0  0  0  0  4           0  0  0
   -0.5927    0.0000    1.4064 C   0  0  0  0  0  4           0  0  0
    0.0000   -0.0000    0.0000 C   0  0  0  0  0  4           0  0  0
    1.5260    0.0000    0.0000 C   0  0  0  0  0  4           0  0  0
    2.1188    0.0000   -1.4064 C   0  0  0  0  0  4           0  0  0
    3.6450    0.0000   -1.4064 C   0  0  0  0  0  4           0  0  0
    4.2378    0.0000   -2.8129 C   0  0  0  0  0  4           0  0  0
    5.7640    0.0000   -2.8129 C   0  0  0  0  0  4           0  0  0
    6.3567    0.0000   -4.2193 C   0  0  0  0  0  4           0  0  0
    5.9389    1.2180   -5.0386 C   0  0  0  0  0  4           0  0  0
    6.5316    1.2180   -6.4451 C   0  0  0  0  0  4           0  0  0
    6.1138    2.4360   -7.2644 C   0  0  0  0  0  4           0  0  0
    6.7065    2.4360   -8.6708 C   0  0  0  0  0  4           0  0  0
    6.2893    3.6507   -9.4866 C   0  0  0  0  0  4           0  0  0
  1  8  1  0     0  0
  2 17  2  0     0  0
  3 18  2  0     0  0
  4 19  2  0     0  0
  5  6  1  0     0  0
  5  9  1  0     0  0
  6 10  2  0     0  0
  7 11  1  0     0  0
  7 17  1  0     0  0
  7 18  1  0     0  0
  8 13  2  0     0  0
  8 14  1  0     0  0
  9 12  2  0     0  0
  9 17  1  0     0  0
 10 12  1  0     0  0
 10 19  1  0     0  0
 11 15  2  0     0  0
 11 16  1  0     0  0
 12 18  1  0     0  0
 13 15  1  0     0  0
 14 16  2  0     0  0
 19 20  1  0     0  0
 20 21  1  0     0  0
 21 22  1  0     0  0
 22 23  1  0     0  0
 23 24  1  0     0  0
 24 25  1  0     0  0
 25 26  1  0     0  0
 26 27  1  0     0  0
 27 28  1  0     0  0
 28 29  1  0     0  0
 29 30  1  0     0  0
 30 31  1  0     0  0
 31 32  1  0     0  0
 32 33  1  0     0  0
 33 34  1  0     0  0
 34 35  1  0     0  0
 35 36  1  0     0  0
M  END
> <standard_type>
IC50

> <# Confs.>
25

> <canonical_smiles>
O=C1C2=C(C(C(CCCCCCCCCCCCCCCCC)=O)=NN2)C(N1C3=CC=C(Br)C=C3)=O

> <standard_relation>
=

> <predicted_activity_value>
6.3979400086720375

> <actual_activity_value>
6.017728766960431

> <Compound>
9

> <publication_ID>
nan

> <standard_units>
nM

> hash
4718146281972516300

$$$$
9_
XXILIB    08252103493D 0   0.00000     0.00000

 36 38  0     1  0            999 V2000
  -16.7496   -0.1080    5.6901 Br  0  0  0  0  0  1           0  0  0
  -10.3896   -0.0716    8.5854 O   0  0  0  0  0  2           0  0  0
  -10.0036   -0.0248    3.9011 O   0  0  0  0  0  2           0  0  0
   -6.9384   -0.0000    3.1127 O   0  0  0  0  0  2           0  0  0
   -7.3647   -0.0286    7.5720 N   0  0  0  0  0  3           0  0  0
   -6.4029   -0.0124    6.6183 N   0  0  0  0  0  3           0  0  0
  -10.6496   -0.0546    6.2069 N   0  0  2  0  0  3           0  0  0
  -14.8656   -0.0939    5.8517 C   0  0  0  0  0  4           0  0  0
   -8.6001   -0.0385    7.0394 C   0  0  0  0  0  4           0  0  0
   -7.0792   -0.0127    5.4470 C   0  0  0  0  0  4           0  0  0
  -12.0657   -0.0694    6.0891 C   0  0  0  0  0  4           0  0  0
   -8.4589   -0.0272    5.6868 C   0  0  0  0  0  4           0  0  0
  -14.2695    0.5061    6.9576 C   0  0  0  0  0  4           0  0  0
  -14.0820   -0.6843    4.8640 C   0  0  0  0  0  4           0  0  0
  -12.8765    0.5170    7.0751 C   0  0  0  0  0  4           0  0  0
  -12.6894   -0.6708    4.9829 C   0  0  0  0  0  4           0  0  0
   -9.9659   -0.0567    7.4411 C   0  0  0  0  0  4           0  0  0
   -9.7711   -0.0354    5.0986 C   0  0  0  0  0  4           0  0  0
   -6.3442   -0.0000    4.1907 C   0  0  0  0  0  4           0  0  0
   -4.8306    0.0000    4.2191 C   0  0  0  0  0  4           0  0  0
   -4.2380   -0.0000    2.8129 C   0  0  0  0  0  4           0  0  0
   -2.7117    0.0000    2.8129 C   0  0  0  0  0  4           0  0  0
   -2.1190   -0.0000    1.4064 C   0  0  0  0  0  4           0  0  0
   -0.5927    0.0000    1.4064 C   0  0  0  0  0  4           0  0  0
    0.0000   -0.0000    0.0000 C   0  0  0  0  0  4           0  0  0
    1.5260    0.0000    0.0000 C   0  0  0  0  0  4           0  0  0
    2.1188    0.0000   -1.4064 C   0  0  0  0  0  4           0  0  0
    3.6450    0.0000   -1.4064 C   0  0  0  0  0  4           0  0  0
    4.2378    0.0000   -2.8129 C   0  0  0  0  0  4           0  0  0
    5.7640    0.0000   -2.8129 C   0  0  0  0  0  4           0  0  0
    6.3567    0.0000   -4.2193 C   0  0  0  0  0  4           0  0  0
    7.8830    0.0000   -4.2193 C   0  0  0  0  0  4           0  0  0
    8.4757   -1.2180   -3.5161 C   0  0  0  0  0  4           0  0  0
   10.0019   -1.2180   -3.5161 C   0  0  0  0  0  4           0  0  0
   10.5947   -2.4360   -2.8129 C   0  0  0  0  0  4           0  0  0
   12.1162   -2.4349   -2.8135 C   0  0  0  0  0  4           0  0  0
  1  8  1  0     0  0
  2 17  2  0     0  0
  3 18  2  0     0  0
  4 19  2  0     0  0
  5  6  1  0     0  0
  5  9  1  0     0  0
  6 10  2  0     0  0
  7 11  1  0     0  0
  7 17  1  0     0  0
  7 18  1  0     0  0
  8 13  2  0     0  0
  8 14  1  0     0  0
  9 12  2  0     0  0
  9 17  1  0     0  0
 10 12  1  0     0  0
 10 19  1  0     0  0
 11 15  2  0     0  0
 11 16  1  0     0  0
 12 18  1  0     0  0
 13 15  1  0     0  0
 14 16  2  0     0  0
 19 20  1  0     0  0
 20 21  1  0     0  0
 21 22  1  0     0  0
 22 23  1  0     0  0
 23 24  1  0     0  0
 24 25  1  0     0  0
 25 26  1  0     0  0
 26 27  1  0     0  0
 27 28  1  0     0  0
 28 29  1  0     0  0
 29 30  1  0     0  0
 30 31  1  0     0  0
 31 32  1  0     0  0
 32 33  1  0     0  0
 33 34  1  0     0  0
 34 35  1  0     0  0
 35 36  1  0     0  0
M  END
> <standard_type>
IC50

> <# Confs.>
25

> <canonical_smiles>
O=C1C2=C(C(C(CCCCCCCCCCCCCCCCC)=O)=NN2)C(N1C3=CC=C(Br)C=C3)=O

> <standard_relation>
=

> <predicted_activity_value>
6.3979400086720375

> <actual_activity_value>
6.017728766960431

> <Compound>
9

> <publication_ID>
nan

> <standard_units>
nM

> hash
4718146281972516300

$$$$
9_
XXILIB    08252103493D 0   0.00000     0.00000

 36 38  0     1  0            999 V2000
  -16.7496   -0.1080    5.6901 Br  0  0  0  0  0  1           0  0  0
  -10.3896   -0.0716    8.5854 O   0  0  0  0  0  2           0  0  0
  -10.0036   -0.0248    3.9011 O   0  0  0  0  0  2           0  0  0
   -6.9384   -0.0000    3.1127 O   0  0  0  0  0  2           0  0  0
   -7.3647   -0.0286    7.5720 N   0  0  0  0  0  3           0  0  0
   -6.4029   -0.0124    6.6183 N   0  0  0  0  0  3           0  0  0
  -10.6496   -0.0546    6.2069 N   0  0  2  0  0  3           0  0  0
  -14.8656   -0.0939    5.8517 C   0  0  0  0  0  4           0  0  0
   -8.6001   -0.0385    7.0394 C   0  0  0  0  0  4           0  0  0
   -7.0792   -0.0127    5.4470 C   0  0  0  0  0  4           0  0  0
  -12.0657   -0.0694    6.0891 C   0  0  0  0  0  4           0  0  0
   -8.4589   -0.0272    5.6868 C   0  0  0  0  0  4           0  0  0
  -14.2695    0.5061    6.9576 C   0  0  0  0  0  4           0  0  0
  -14.0820   -0.6843    4.8640 C   0  0  0  0  0  4           0  0  0
  -12.8765    0.5170    7.0751 C   0  0  0  0  0  4           0  0  0
  -12.6894   -0.6708    4.9829 C   0  0  0  0  0  4           0  0  0
   -9.9659   -0.0567    7.4411 C   0  0  0  0  0  4           0  0  0
   -9.7711   -0.0354    5.0986 C   0  0  0  0  0  4           0  0  0
   -6.3442   -0.0000    4.1907 C   0  0  0  0  0  4           0  0  0
   -4.8306    0.0000    4.2191 C   0  0  0  0  0  4           0  0  0
   -4.2380   -0.0000    2.8129 C   0  0  0  0  0  4           0  0  0
   -2.7117    0.0000    2.8129 C   0  0  0  0  0  4           0  0  0
   -2.1190   -0.0000    1.4064 C   0  0  0  0  0  4           0  0  0
   -0.5927    0.0000    1.4064 C   0  0  0  0  0  4           0  0  0
    0.0000   -0.0000    0.0000 C   0  0  0  0  0  4           0  0  0
    1.5260    0.0000    0.0000 C   0  0  0  0  0  4           0  0  0
    2.1188    0.0000   -1.4064 C   0  0  0  0  0  4           0  0  0
    3.6450    0.0000   -1.4064 C   0  0  0  0  0  4           0  0  0
    4.2378    0.0000   -2.8129 C   0  0  0  0  0  4           0  0  0
    5.7640    0.0000   -2.8129 C   0  0  0  0  0  4           0  0  0
    6.3567    0.0000   -4.2193 C   0  0  0  0  0  4           0  0  0
    7.8830    0.0000   -4.2193 C   0  0  0  0  0  4           0  0  0
    8.4757    0.0000   -5.6258 C   0  0  0  0  0  4           0  0  0
    8.0579    1.2180   -6.4451 C   0  0  0  0  0  4           0  0  0
    8.6506    1.2180   -7.8515 C   0  0  0  0  0  4           0  0  0
    8.2334    2.4327   -8.6673 C   0  0  0  0  0  4           0  0  0
  1  8  1  0     0  0
  2 17  2  0     0  0
  3 18  2  0     0  0
  4 19  2  0     0  0
  5  6  1  0     0  0
  5  9  1  0     0  0
  6 10  2  0     0  0
  7 11  1  0     0  0
  7 17  1  0     0  0
  7 18  1  0     0  0
  8 13  2  0     0  0
  8 14  1  0     0  0
  9 12  2  0     0  0
  9 17  1  0     0  0
 10 12  1  0     0  0
 10 19  1  0     0  0
 11 15  2  0     0  0
 11 16  1  0     0  0
 12 18  1  0     0  0
 13 15  1  0     0  0
 14 16  2  0     0  0
 19 20  1  0     0  0
 20 21  1  0     0  0
 21 22  1  0     0  0
 22 23  1  0     0  0
 23 24  1  0     0  0
 24 25  1  0     0  0
 25 26  1  0     0  0
 26 27  1  0     0  0
 27 28  1  0     0  0
 28 29  1  0     0  0
 29 30  1  0     0  0
 30 31  1  0     0  0
 31 32  1  0     0  0
 32 33  1  0     0  0
 33 34  1  0     0  0
 34 35  1  0     0  0
 35 36  1  0     0  0
M  END
> <standard_type>
IC50

> <# Confs.>
25

> <canonical_smiles>
O=C1C2=C(C(C(CCCCCCCCCCCCCCCCC)=O)=NN2)C(N1C3=CC=C(Br)C=C3)=O

> <standard_relation>
=

> <predicted_activity_value>
6.3979400086720375

> <actual_activity_value>
6.017728766960431

> <Compound>
9

> <publication_ID>
nan

> <standard_units>
nM

> hash
4718146281972516300

$$$$
9_
XXILIB    08252103493D 0   0.00000     0.00000

 36 38  0     1  0            999 V2000
    1.6171  -11.3992   13.4305 Br  0  0  0  0  0  1           0  0  0
   -1.7074   -5.3681   12.2445 O   0  0  0  0  0  2           0  0  0
    0.6642   -6.6589    8.3969 O   0  0  0  0  0  2           0  0  0
    0.2285   -4.4903    6.1332 O   0  0  0  0  0  2           0  0  0
   -2.0258   -3.3164    9.8221 N   0  0  0  0  0  3           0  0  0
   -1.7900   -2.8777    8.5624 N   0  0  0  0  0  3           0  0  0
   -0.3729   -6.3840   10.5379 N   0  0  2  0  0  3           0  0  0
    1.0033   -9.8484   12.5395 C   0  0  0  0  0  4           0  0  0
   -1.3937   -4.4765   10.0765 C   0  0  0  0  0  4           0  0  0
   -0.9759   -3.8112    8.0191 C   0  0  0  0  0  4           0  0  0
    0.0898   -7.5464   11.2119 C   0  0  0  0  0  4           0  0  0
   -0.7154   -4.8244    8.9503 C   0  0  0  0  0  4           0  0  0
   -0.2324   -9.3007   12.8734 C   0  0  0  0  0  4           0  0  0
    1.7901   -9.2600   11.5531 C   0  0  0  0  0  4           0  0  0
   -0.6855   -8.1550   12.2129 C   0  0  0  0  0  4           0  0  0
    1.3343   -8.1154   10.8931 C   0  0  0  0  0  4           0  0  0
   -1.2209   -5.4223   11.1266 C   0  0  0  0  0  4           0  0  0
   -0.0338   -6.0653    9.2023 C   0  0  0  0  0  4           0  0  0
   -0.5128   -3.6536    6.6483 C   0  0  0  0  0  4           0  0  0
   -0.9425   -2.4360    5.8578 C   0  0  0  0  0  4           0  0  0
   -0.3498   -2.4360    4.4515 C   0  0  0  0  0  4           0  0  0
   -0.7676   -1.2180    3.6322 C   0  0  0  0  0  4           0  0  0
   -0.1749   -1.2180    2.2258 C   0  0  0  0  0  4           0  0  0
   -0.5927   -0.0000    1.4064 C   0  0  0  0  0  4           0  0  0
    0.0000    0.0000    0.0000 C   0  0  0  0  0  4           0  0  0
    1.5260    0.0000    0.0000 C   0  0  0  0  0  4           0  0  0
    2.1188    0.0000   -1.4064 C   0  0  0  0  0  4           0  0  0
    3.6450    0.0000   -1.4064 C   0  0  0  0  0  4           0  0  0
    4.2378    0.0000   -2.8129 C   0  0  0  0  0  4           0  0  0
    5.7640    0.0000   -2.8129 C   0  0  0  0  0  4           0  0  0
    6.3567    0.0000   -4.2193 C   0  0  0  0  0  4           0  0  0
    7.8830    0.0000   -4.2193 C   0  0  0  0  0  4           0  0  0
    8.4757    0.0000   -5.6258 C   0  0  0  0  0  4           0  0  0
   10.0019    0.0000   -5.6258 C   0  0  0  0  0  4           0  0  0
   10.5947    0.0000   -7.0322 C   0  0  0  0  0  4           0  0  0
   12.1162    0.0000   -7.0310 C   0  0  0  0  0  4           0  0  0
  1  8  1  0     0  0
  2 17  2  0     0  0
  3 18  2  0     0  0
  4 19  2  0     0  0
  5  6  1  0     0  0
  5  9  1  0     0  0
  6 10  2  0     0  0
  7 11  1  0     0  0
  7 17  1  0     0  0
  7 18  1  0     0  0
  8 13  2  0     0  0
  8 14  1  0     0  0
  9 12  2  0     0  0
  9 17  1  0     0  0
 10 12  1  0     0  0
 10 19  1  0     0  0
 11 15  2  0     0  0
 11 16  1  0     0  0
 12 18  1  0     0  0
 13 15  1  0     0  0
 14 16  2  0     0  0
 19 20  1  0     0  0
 20 21  1  0     0  0
 21 22  1  0     0  0
 22 23  1  0     0  0
 23 24  1  0     0  0
 24 25  1  0     0  0
 25 26  1  0     0  0
 26 27  1  0     0  0
 27 28  1  0     0  0
 28 29  1  0     0  0
 29 30  1  0     0  0
 30 31  1  0     0  0
 31 32  1  0     0  0
 32 33  1  0     0  0
 33 34  1  0     0  0
 34 35  1  0     0  0
 35 36  1  0     0  0
M  END
> <standard_type>
IC50

> <# Confs.>
25

> <canonical_smiles>
O=C1C2=C(C(C(CCCCCCCCCCCCCCCCC)=O)=NN2)C(N1C3=CC=C(Br)C=C3)=O

> <standard_relation>
=

> <predicted_activity_value>
6.3979400086720375

> <actual_activity_value>
6.017728766960431

> <Compound>
9

> <publication_ID>
nan

> <standard_units>
nM

> hash
4718146281972516300

$$$$
9_
XXILIB    08252103493D 0   0.00000     0.00000

 36 38  0     1  0            999 V2000
  -16.7496   -0.1080    5.6901 Br  0  0  0  0  0  1           0  0  0
  -10.3896   -0.0716    8.5854 O   0  0  0  0  0  2           0  0  0
  -10.0036   -0.0248    3.9011 O   0  0  0  0  0  2           0  0  0
   -6.9384   -0.0000    3.1127 O   0  0  0  0  0  2           0  0  0
   -7.3647   -0.0286    7.5720 N   0  0  0  0  0  3           0  0  0
   -6.4029   -0.0124    6.6183 N   0  0  0  0  0  3           0  0  0
  -10.6496   -0.0546    6.2069 N   0  0  2  0  0  3           0  0  0
  -14.8656   -0.0939    5.8517 C   0  0  0  0  0  4           0  0  0
   -8.6001   -0.0385    7.0394 C   0  0  0  0  0  4           0  0  0
   -7.0792   -0.0127    5.4470 C   0  0  0  0  0  4           0  0  0
  -12.0657   -0.0694    6.0891 C   0  0  0  0  0  4           0  0  0
   -8.4589   -0.0272    5.6868 C   0  0  0  0  0  4           0  0  0
  -14.2695    0.5061    6.9576 C   0  0  0  0  0  4           0  0  0
  -14.0820   -0.6843    4.8640 C   0  0  0  0  0  4           0  0  0
  -12.8765    0.5170    7.0751 C   0  0  0  0  0  4           0  0  0
  -12.6894   -0.6708    4.9829 C   0  0  0  0  0  4           0  0  0
   -9.9659   -0.0567    7.4411 C   0  0  0  0  0  4           0  0  0
   -9.7711   -0.0354    5.0986 C   0  0  0  0  0  4           0  0  0
   -6.3442   -0.0000    4.1907 C   0  0  0  0  0  4           0  0  0
   -4.8306    0.0000    4.2191 C   0  0  0  0  0  4           0  0  0
   -4.2380   -0.0000    2.8129 C   0  0  0  0  0  4           0  0  0
   -2.7117    0.0000    2.8129 C   0  0  0  0  0  4           0  0  0
   -2.1190   -0.0000    1.4064 C   0  0  0  0  0  4           0  0  0
   -0.5927    0.0000    1.4064 C   0  0  0  0  0  4           0  0  0
    0.0000   -0.0000    0.0000 C   0  0  0  0  0  4           0  0  0
    1.5260    0.0000   -0.0000 C   0  0  0  0  0  4           0  0  0
    2.1188    0.0000   -1.4064 C   0  0  0  0  0  4           0  0  0
    3.6450   -0.0000   -1.4064 C   0  0  0  0  0  4           0  0  0
    4.2378    1.2180   -0.7032 C   0  0  0  0  0  4           0  0  0
    5.7640    1.2180   -0.7032 C   0  0  0  0  0  4           0  0  0
    6.3567    2.4360   -0.0000 C   0  0  0  0  0  4           0  0  0
    7.8830    2.4360   -0.0000 C   0  0  0  0  0  4           0  0  0
    8.4757    3.6540    0.7032 C   0  0  0  0  0  4           0  0  0
   10.0019    3.6540    0.7032 C   0  0  0  0  0  4           0  0  0
   10.5947    4.8721    1.4064 C   0  0  0  0  0  4           0  0  0
   12.1162    4.8710    1.4058 C   0  0  0  0  0  4           0  0  0
  1  8  1  0     0  0
  2 17  2  0     0  0
  3 18  2  0     0  0
  4 19  2  0     0  0
  5  6  1  0     0  0
  5  9  1  0     0  0
  6 10  2  0     0  0
  7 11  1  0     0  0
  7 17  1  0     0  0
  7 18  1  0     0  0
  8 13  2  0     0  0
  8 14  1  0     0  0
  9 12  2  0     0  0
  9 17  1  0     0  0
 10 12  1  0     0  0
 10 19  1  0     0  0
 11 15  2  0     0  0
 11 16  1  0     0  0
 12 18  1  0     0  0
 13 15  1  0     0  0
 14 16  2  0     0  0
 19 20  1  0     0  0
 20 21  1  0     0  0
 21 22  1  0     0  0
 22 23  1  0     0  0
 23 24  1  0     0  0
 24 25  1  0     0  0
 25 26  1  0     0  0
 26 27  1  0     0  0
 27 28  1  0     0  0
 28 29  1  0     0  0
 29 30  1  0     0  0
 30 31  1  0     0  0
 31 32  1  0     0  0
 32 33  1  0     0  0
 33 34  1  0     0  0
 34 35  1  0     0  0
 35 36  1  0     0  0
M  END
> <standard_type>
IC50

> <# Confs.>
25

> <canonical_smiles>
O=C1C2=C(C(C(CCCCCCCCCCCCCCCCC)=O)=NN2)C(N1C3=CC=C(Br)C=C3)=O

> <standard_relation>
=

> <predicted_activity_value>
6.3979400086720375

> <actual_activity_value>
6.017728766960431

> <Compound>
9

> <publication_ID>
nan

> <standard_units>
nM

> hash
4718146281972516300

$$$$
9_
XXILIB    08252103493D 0   0.00000     0.00000

 36 38  0     1  0            999 V2000
  -16.7496   -0.1080    5.6901 Br  0  0  0  0  0  1           0  0  0
  -10.3896   -0.0716    8.5854 O   0  0  0  0  0  2           0  0  0
  -10.0036   -0.0248    3.9011 O   0  0  0  0  0  2           0  0  0
   -6.9384   -0.0000    3.1127 O   0  0  0  0  0  2           0  0  0
   -7.3647   -0.0286    7.5720 N   0  0  0  0  0  3           0  0  0
   -6.4029   -0.0124    6.6183 N   0  0  0  0  0  3           0  0  0
  -10.6496   -0.0546    6.2069 N   0  0  2  0  0  3           0  0  0
  -14.8656   -0.0939    5.8517 C   0  0  0  0  0  4           0  0  0
   -8.6001   -0.0385    7.0394 C   0  0  0  0  0  4           0  0  0
   -7.0792   -0.0127    5.4470 C   0  0  0  0  0  4           0  0  0
  -12.0657   -0.0694    6.0891 C   0  0  0  0  0  4           0  0  0
   -8.4589   -0.0272    5.6868 C   0  0  0  0  0  4           0  0  0
  -14.2695    0.5061    6.9576 C   0  0  0  0  0  4           0  0  0
  -14.0820   -0.6843    4.8640 C   0  0  0  0  0  4           0  0  0
  -12.8765    0.5170    7.0751 C   0  0  0  0  0  4           0  0  0
  -12.6894   -0.6708    4.9829 C   0  0  0  0  0  4           0  0  0
   -9.9659   -0.0567    7.4411 C   0  0  0  0  0  4           0  0  0
   -9.7711   -0.0354    5.0986 C   0  0  0  0  0  4           0  0  0
   -6.3442   -0.0000    4.1907 C   0  0  0  0  0  4           0  0  0
   -4.8306    0.0000    4.2191 C   0  0  0  0  0  4           0  0  0
   -4.2380   -0.0000    2.8129 C   0  0  0  0  0  4           0  0  0
   -2.7117    0.0000    2.8129 C   0  0  0  0  0  4           0  0  0
   -2.1190   -0.0000    1.4064 C   0  0  0  0  0  4           0  0  0
   -0.5927    0.0000    1.4064 C   0  0  0  0  0  4           0  0  0
    0.0000   -0.0000    0.0000 C   0  0  0  0  0  4           0  0  0
    1.5260    0.0000   -0.0000 C   0  0  0  0  0  4           0  0  0
    2.1188    0.0000   -1.4064 C   0  0  0  0  0  4           0  0  0
    3.6450    0.0000   -1.4064 C   0  0  0  0  0  4           0  0  0
    4.2378    0.0000   -2.8129 C   0  0  0  0  0  4           0  0  0
    3.8199   -1.2180   -3.6322 C   0  0  0  0  0  4           0  0  0
    4.4127   -1.2180   -5.0386 C   0  0  0  0  0  4           0  0  0
    3.9948   -2.4360   -5.8580 C   0  0  0  0  0  4           0  0  0
    4.5876   -2.4360   -7.2644 C   0  0  0  0  0  4           0  0  0
    4.1697   -3.6540   -8.0837 C   0  0  0  0  0  4           0  0  0
    4.7625   -3.6540   -9.4902 C   0  0  0  0  0  4           0  0  0
    4.3453   -4.8687  -10.3060 C   0  0  0  0  0  4           0  0  0
  1  8  1  0     0  0
  2 17  2  0     0  0
  3 18  2  0     0  0
  4 19  2  0     0  0
  5  6  1  0     0  0
  5  9  1  0     0  0
  6 10  2  0     0  0
  7 11  1  0     0  0
  7 17  1  0     0  0
  7 18  1  0     0  0
  8 13  2  0     0  0
  8 14  1  0     0  0
  9 12  2  0     0  0
  9 17  1  0     0  0
 10 12  1  0     0  0
 10 19  1  0     0  0
 11 15  2  0     0  0
 11 16  1  0     0  0
 12 18  1  0     0  0
 13 15  1  0     0  0
 14 16  2  0     0  0
 19 20  1  0     0  0
 20 21  1  0     0  0
 21 22  1  0     0  0
 22 23  1  0     0  0
 23 24  1  0     0  0
 24 25  1  0     0  0
 25 26  1  0     0  0
 26 27  1  0     0  0
 27 28  1  0     0  0
 28 29  1  0     0  0
 29 30  1  0     0  0
 30 31  1  0     0  0
 31 32  1  0     0  0
 32 33  1  0     0  0
 33 34  1  0     0  0
 34 35  1  0     0  0
 35 36  1  0     0  0
M  END
> <standard_type>
IC50

> <# Confs.>
25

> <canonical_smiles>
O=C1C2=C(C(C(CCCCCCCCCCCCCCCCC)=O)=NN2)C(N1C3=CC=C(Br)C=C3)=O

> <standard_relation>
=

> <predicted_activity_value>
6.3979400086720375

> <actual_activity_value>
6.017728766960431

> <Compound>
9

> <publication_ID>
nan

> <standard_units>
nM

> hash
4718146281972516300

$$$$
9_
XXILIB    08252103493D 0   0.00000     0.00000

 36 38  0     1  0            999 V2000
  -16.7496   -0.1080    5.6901 Br  0  0  0  0  0  1           0  0  0
  -10.3896   -0.0716    8.5854 O   0  0  0  0  0  2           0  0  0
  -10.0036   -0.0248    3.9011 O   0  0  0  0  0  2           0  0  0
   -6.9384   -0.0000    3.1127 O   0  0  0  0  0  2           0  0  0
   -7.3647   -0.0286    7.5720 N   0  0  0  0  0  3           0  0  0
   -6.4029   -0.0124    6.6183 N   0  0  0  0  0  3           0  0  0
  -10.6496   -0.0546    6.2069 N   0  0  2  0  0  3           0  0  0
  -14.8656   -0.0939    5.8517 C   0  0  0  0  0  4           0  0  0
   -8.6001   -0.0385    7.0394 C   0  0  0  0  0  4           0  0  0
   -7.0792   -0.0127    5.4470 C   0  0  0  0  0  4           0  0  0
  -12.0657   -0.0694    6.0891 C   0  0  0  0  0  4           0  0  0
   -8.4589   -0.0272    5.6868 C   0  0  0  0  0  4           0  0  0
  -14.2695    0.5061    6.9576 C   0  0  0  0  0  4           0  0  0
  -14.0820   -0.6843    4.8640 C   0  0  0  0  0  4           0  0  0
  -12.8765    0.5170    7.0751 C   0  0  0  0  0  4           0  0  0
  -12.6894   -0.6708    4.9829 C   0  0  0  0  0  4           0  0  0
   -9.9659   -0.0567    7.4411 C   0  0  0  0  0  4           0  0  0
   -9.7711   -0.0354    5.0986 C   0  0  0  0  0  4           0  0  0
   -6.3442   -0.0000    4.1907 C   0  0  0  0  0  4           0  0  0
   -4.8306    0.0000    4.2191 C   0  0  0  0  0  4           0  0  0
   -4.2380   -0.0000    2.8129 C   0  0  0  0  0  4           0  0  0
   -2.7117    0.0000    2.8129 C   0  0  0  0  0  4           0  0  0
   -2.1190   -0.0000    1.4064 C   0  0  0  0  0  4           0  0  0
   -0.5927    0.0000    1.4064 C   0  0  0  0  0  4           0  0  0
    0.0000   -0.0000    0.0000 C   0  0  0  0  0  4           0  0  0
    1.5260   -0.0000    0.0000 C   0  0  0  0  0  4           0  0  0
    2.1188    0.0000   -1.4064 C   0  0  0  0  0  4           0  0  0
    1.7009   -1.2180   -2.2258 C   0  0  0  0  0  4           0  0  0
    2.2937   -1.2180   -3.6322 C   0  0  0  0  0  4           0  0  0
    1.8759   -2.4360   -4.4515 C   0  0  0  0  0  4           0  0  0
    2.4686   -2.4360   -5.8580 C   0  0  0  0  0  4           0  0  0
    2.0508   -3.6540   -6.6773 C   0  0  0  0  0  4           0  0  0
    2.6435   -3.6540   -8.0837 C   0  0  0  0  0  4           0  0  0
    2.2257   -4.8721   -8.9030 C   0  0  0  0  0  4           0  0  0
    2.8184   -4.8721  -10.3095 C   0  0  0  0  0  4           0  0  0
    2.4012   -6.0867  -11.1253 C   0  0  0  0  0  4           0  0  0
  1  8  1  0     0  0
  2 17  2  0     0  0
  3 18  2  0     0  0
  4 19  2  0     0  0
  5  6  1  0     0  0
  5  9  1  0     0  0
  6 10  2  0     0  0
  7 11  1  0     0  0
  7 17  1  0     0  0
  7 18  1  0     0  0
  8 13  2  0     0  0
  8 14  1  0     0  0
  9 12  2  0     0  0
  9 17  1  0     0  0
 10 12  1  0     0  0
 10 19  1  0     0  0
 11 15  2  0     0  0
 11 16  1  0     0  0
 12 18  1  0     0  0
 13 15  1  0     0  0
 14 16  2  0     0  0
 19 20  1  0     0  0
 20 21  1  0     0  0
 21 22  1  0     0  0
 22 23  1  0     0  0
 23 24  1  0     0  0
 24 25  1  0     0  0
 25 26  1  0     0  0
 26 27  1  0     0  0
 27 28  1  0     0  0
 28 29  1  0     0  0
 29 30  1  0     0  0
 30 31  1  0     0  0
 31 32  1  0     0  0
 32 33  1  0     0  0
 33 34  1  0     0  0
 34 35  1  0     0  0
 35 36  1  0     0  0
M  END
> <standard_type>
IC50

> <# Confs.>
25

> <canonical_smiles>
O=C1C2=C(C(C(CCCCCCCCCCCCCCCCC)=O)=NN2)C(N1C3=CC=C(Br)C=C3)=O

> <standard_relation>
=

> <predicted_activity_value>
6.3979400086720375

> <actual_activity_value>
6.017728766960431

> <Compound>
9

> <publication_ID>
nan

> <standard_units>
nM

> hash
4718146281972516300

$$$$
9_
XXILIB    08252103493D 0   0.00000     0.00000

 36 38  0     1  0            999 V2000
  -16.7496   -0.1080    5.6901 Br  0  0  0  0  0  1           0  0  0
  -10.3896   -0.0716    8.5854 O   0  0  0  0  0  2           0  0  0
  -10.0036   -0.0248    3.9011 O   0  0  0  0  0  2           0  0  0
   -6.9384   -0.0000    3.1127 O   0  0  0  0  0  2           0  0  0
   -7.3647   -0.0286    7.5720 N   0  0  0  0  0  3           0  0  0
   -6.4029   -0.0124    6.6183 N   0  0  0  0  0  3           0  0  0
  -10.6496   -0.0546    6.2069 N   0  0  2  0  0  3           0  0  0
  -14.8656   -0.0939    5.8517 C   0  0  0  0  0  4           0  0  0
   -8.6001   -0.0385    7.0394 C   0  0  0  0  0  4           0  0  0
   -7.0792   -0.0127    5.4470 C   0  0  0  0  0  4           0  0  0
  -12.0657   -0.0694    6.0891 C   0  0  0  0  0  4           0  0  0
   -8.4589   -0.0272    5.6868 C   0  0  0  0  0  4           0  0  0
  -14.2695    0.5061    6.9576 C   0  0  0  0  0  4           0  0  0
  -14.0820   -0.6843    4.8640 C   0  0  0  0  0  4           0  0  0
  -12.8765    0.5170    7.0751 C   0  0  0  0  0  4           0  0  0
  -12.6894   -0.6708    4.9829 C   0  0  0  0  0  4           0  0  0
   -9.9659   -0.0567    7.4411 C   0  0  0  0  0  4           0  0  0
   -9.7711   -0.0354    5.0986 C   0  0  0  0  0  4           0  0  0
   -6.3442   -0.0000    4.1907 C   0  0  0  0  0  4           0  0  0
   -4.8306    0.0000    4.2191 C   0  0  0  0  0  4           0  0  0
   -4.2380   -0.0000    2.8129 C   0  0  0  0  0  4           0  0  0
   -2.7117    0.0000    2.8129 C   0  0  0  0  0  4           0  0  0
   -2.1190   -0.0000    1.4064 C   0  0  0  0  0  4           0  0  0
   -0.5927    0.0000    1.4064 C   0  0  0  0  0  4           0  0  0
    0.0000   -0.0000    0.0000 C   0  0  0  0  0  4           0  0  0
    1.5260   -0.0000   -0.0000 C   0  0  0  0  0  4           0  0  0
    2.1188    0.0000   -1.4064 C   0  0  0  0  0  4           0  0  0
    3.6450    0.0000   -1.4064 C   0  0  0  0  0  4           0  0  0
    4.2378    0.0000   -2.8129 C   0  0  0  0  0  4           0  0  0
    5.7640    0.0000   -2.8129 C   0  0  0  0  0  4           0  0  0
    6.3567    1.2180   -2.1097 C   0  0  0  0  0  4           0  0  0
    7.8830    1.2180   -2.1097 C   0  0  0  0  0  4           0  0  0
    8.4757    2.4360   -1.4064 C   0  0  0  0  0  4           0  0  0
   10.0019    2.4360   -1.4064 C   0  0  0  0  0  4           0  0  0
   10.5947    3.6540   -0.7032 C   0  0  0  0  0  4           0  0  0
   12.1162    3.6530   -0.7039 C   0  0  0  0  0  4           0  0  0
  1  8  1  0     0  0
  2 17  2  0     0  0
  3 18  2  0     0  0
  4 19  2  0     0  0
  5  6  1  0     0  0
  5  9  1  0     0  0
  6 10  2  0     0  0
  7 11  1  0     0  0
  7 17  1  0     0  0
  7 18  1  0     0  0
  8 13  2  0     0  0
  8 14  1  0     0  0
  9 12  2  0     0  0
  9 17  1  0     0  0
 10 12  1  0     0  0
 10 19  1  0     0  0
 11 15  2  0     0  0
 11 16  1  0     0  0
 12 18  1  0     0  0
 13 15  1  0     0  0
 14 16  2  0     0  0
 19 20  1  0     0  0
 20 21  1  0     0  0
 21 22  1  0     0  0
 22 23  1  0     0  0
 23 24  1  0     0  0
 24 25  1  0     0  0
 25 26  1  0     0  0
 26 27  1  0     0  0
 27 28  1  0     0  0
 28 29  1  0     0  0
 29 30  1  0     0  0
 30 31  1  0     0  0
 31 32  1  0     0  0
 32 33  1  0     0  0
 33 34  1  0     0  0
 34 35  1  0     0  0
 35 36  1  0     0  0
M  END
> <standard_type>
IC50

> <# Confs.>
25

> <canonical_smiles>
O=C1C2=C(C(C(CCCCCCCCCCCCCCCCC)=O)=NN2)C(N1C3=CC=C(Br)C=C3)=O

> <standard_relation>
=

> <predicted_activity_value>
6.3979400086720375

> <actual_activity_value>
6.017728766960431

> <Compound>
9

> <publication_ID>
nan

> <standard_units>
nM

> hash
4718146281972516300

$$$$
8_
XXILIB    08252103493D 0   0.00000     0.00000

 37 39  0     1  0            999 V2000
  -16.3584    0.0676    5.7768 O   0  0  0  0  0  2           0  0  0
  -10.5124    0.0163    8.5284 O   0  0  0  0  0  2           0  0  0
  -10.1126    0.0320    3.8448 O   0  0  0  0  0  2           0  0  0
   -7.0599   -0.0000    3.0779 O   0  0  0  0  0  2           0  0  0
   -7.4839    0.0222    7.5240 N   0  0  0  0  0  3           0  0  0
   -6.5196    0.0153    6.5724 N   0  0  0  0  0  3           0  0  0
  -10.7652    0.0262    6.1490 N   0  0  1  0  0  3           0  0  0
  -14.9979    0.0104    5.7840 C   0  0  0  0  0  4           0  0  0
   -8.7181    0.0248    6.9878 C   0  0  0  0  0  4           0  0  0
   -7.1928    0.0155    5.3993 C   0  0  0  0  0  4           0  0  0
  -12.1806    0.0224    6.0272 C   0  0  0  0  0  4           0  0  0
   -8.5733    0.0256    5.6357 C   0  0  0  0  0  4           0  0  0
  -14.3820    0.6125    6.8828 C   0  0  0  0  0  4           0  0  0
  -14.2034   -0.5858    4.8038 C   0  0  0  0  0  4           0  0  0
  -12.9890    0.6174    7.0066 C   0  0  0  0  0  4           0  0  0
  -12.8081   -0.5777    4.9247 C   0  0  0  0  0  4           0  0  0
  -10.0852    0.0228    7.3853 C   0  0  0  0  0  4           0  0  0
   -9.8835    0.0294    5.0430 C   0  0  0  0  0  4           0  0  0
   -6.4594   -0.0000    4.1518 C   0  0  0  0  0  4           0  0  0
  -17.0479   -0.5288    4.6820 C   0  0  0  0  0  4           0  0  0
   -4.9437    0.0000    4.1750 C   0  0  0  0  0  4           0  0  0
   -4.3140   -0.0000    2.7832 C   0  0  0  0  0  4           0  0  0
   -2.7866    0.0000    2.7832 C   0  0  0  0  0  4           0  0  0
   -2.1570   -0.0000    1.3916 C   0  0  0  0  0  4           0  0  0
   -0.6296   -0.0000    1.3916 C   0  0  0  0  0  4           0  0  0
    0.0000   -0.0000    0.0000 C   0  0  0  0  0  4           0  0  0
    1.5277   -0.0000    0.0000 C   0  0  0  0  0  4           0  0  0
    2.1573    0.0000   -1.3916 C   0  0  0  0  0  4           0  0  0
    3.6847   -0.0000   -1.3916 C   0  0  0  0  0  4           0  0  0
    4.3143    0.0000   -2.7832 C   0  0  0  0  0  4           0  0  0
    5.8416   -0.0000   -2.7832 C   0  0  0  0  0  4           0  0  0
    6.4712    0.0000   -4.1748 C   0  0  0  0  0  4           0  0  0
    7.9986   -0.0000   -4.1748 C   0  0  0  0  0  4           0  0  0
    8.6282    0.0000   -5.5664 C   0  0  0  0  0  4           0  0  0
   10.1556   -0.0000   -5.5664 C   0  0  0  0  0  4           0  0  0
   10.7852    0.0000   -6.9579 C   0  0  0  0  0  4           0  0  0
   12.3038   -0.0000   -6.8799 C   0  0  0  0  0  4           0  0  0
  1  8  1  0     0  0
  1 20  1  0     0  0
  2 17  2  0     0  0
  3 18  2  0     0  0
  4 19  2  0     0  0
  5  6  1  0     0  0
  5  9  1  0     0  0
  6 10  2  0     0  0
  7 11  1  0     0  0
  7 17  1  0     0  0
  7 18  1  0     0  0
  8 13  2  0     0  0
  8 14  1  0     0  0
  9 12  2  0     0  0
  9 17  1  0     0  0
 10 12  1  0     0  0
 10 19  1  0     0  0
 11 15  2  0     0  0
 11 16  1  0     0  0
 12 18  1  0     0  0
 13 15  1  0     0  0
 14 16  2  0     0  0
 19 21  1  0     0  0
 21 22  1  0     0  0
 22 23  1  0     0  0
 23 24  1  0     0  0
 24 25  1  0     0  0
 25 26  1  0     0  0
 26 27  1  0     0  0
 27 28  1  0     0  0
 28 29  1  0     0  0
 29 30  1  0     0  0
 30 31  1  0     0  0
 31 32  1  0     0  0
 32 33  1  0     0  0
 33 34  1  0     0  0
 34 35  1  0     0  0
 35 36  1  0     0  0
 36 37  1  0     0  0
M  END
> <standard_type>
IC50

> <# Confs.>
25

> <canonical_smiles>
O=C1C2=C(C(C(CCCCCCCCCCCCCCCCC)=O)=NN2)C(N1C3=CC=C(OC)C=C3)=O

> <standard_relation>
=

> <predicted_activity_value>
6.494850021680094

> <actual_activity_value>
6.267606240177032

> <Compound>
8

> <publication_ID>
nan

> <standard_units>
nM

> hash
16153934751459735447

$$$$
8_
XXILIB    08252103493D 0   0.00000     0.00000

 37 39  0     1  0            999 V2000
   -2.2790   -8.0903   11.9411 O   0  0  0  0  0  2           0  0  0
   -3.9631   -1.9395   10.9011 O   0  0  0  0  0  2           0  0  0
   -3.6392   -4.2558    6.8234 O   0  0  0  0  0  2           0  0  0
   -4.3067   -2.2783    4.4671 O   0  0  0  0  0  2           0  0  0
   -4.6386   -0.1242    8.3655 N   0  0  0  0  0  3           0  0  0
   -4.7859    0.1018    7.0379 N   0  0  0  0  0  3           0  0  0
   -3.6853   -3.4750    9.0870 N   0  0  1  0  0  3           0  0  0
   -2.5678   -7.0021   11.1752 C   0  0  0  0  0  4           0  0  0
   -4.2793   -1.3955    8.6214 C   0  0  0  0  0  4           0  0  0
   -4.5060   -1.0851    6.4529 C   0  0  0  0  0  4           0  0  0
   -3.3131   -4.6547    9.7856 C   0  0  0  0  0  4           0  0  0
   -4.1897   -2.0401    7.4273 C   0  0  0  0  0  4           0  0  0
   -3.4063   -6.0588   11.7721 C   0  0  0  0  0  4           0  0  0
   -2.1021   -6.7720    9.8799 C   0  0  0  0  0  4           0  0  0
   -3.7742   -4.8959   11.0880 C   0  0  0  0  0  4           0  0  0
   -2.4733   -5.6097    9.1923 C   0  0  0  0  0  4           0  0  0
   -3.9698   -2.2465    9.7199 C   0  0  0  0  0  4           0  0  0
   -3.8071   -3.4032    7.6797 C   0  0  0  0  0  4           0  0  0
   -4.5590   -1.2043    5.0116 C   0  0  0  0  0  4           0  0  0
   -1.4278   -9.0906   11.3894 C   0  0  0  0  0  4           0  0  0
   -4.9437    0.0000    4.1750 C   0  0  0  0  0  4           0  0  0
   -4.3140   -0.0000    2.7832 C   0  0  0  0  0  4           0  0  0
   -2.7866    0.0000    2.7832 C   0  0  0  0  0  4           0  0  0
   -2.1570   -0.0000    1.3916 C   0  0  0  0  0  4           0  0  0
   -0.6296   -0.0000    1.3916 C   0  0  0  0  0  4           0  0  0
    0.0000    0.0000    0.0000 C   0  0  0  0  0  4           0  0  0
    1.5277   -0.0000    0.0000 C   0  0  0  0  0  4           0  0  0
    2.1573    0.0000   -1.3916 C   0  0  0  0  0  4           0  0  0
    3.6847   -0.0000   -1.3916 C   0  0  0  0  0  4           0  0  0
    4.3143    0.0000   -2.7832 C   0  0  0  0  0  4           0  0  0
    5.8416   -0.0000   -2.7832 C   0  0  0  0  0  4           0  0  0
    6.4712    0.0000   -4.1748 C   0  0  0  0  0  4           0  0  0
    7.9986   -0.0000   -4.1748 C   0  0  0  0  0  4           0  0  0
    8.6282    0.0000   -5.5664 C   0  0  0  0  0  4           0  0  0
   10.1556   -0.0000   -5.5664 C   0  0  0  0  0  4           0  0  0
   10.7852    0.0000   -6.9579 C   0  0  0  0  0  4           0  0  0
   12.3038   -0.0000   -6.8799 C   0  0  0  0  0  4           0  0  0
  1  8  1  0     0  0
  1 20  1  0     0  0
  2 17  2  0     0  0
  3 18  2  0     0  0
  4 19  2  0     0  0
  5  6  1  0     0  0
  5  9  1  0     0  0
  6 10  2  0     0  0
  7 11  1  0     0  0
  7 17  1  0     0  0
  7 18  1  0     0  0
  8 13  2  0     0  0
  8 14  1  0     0  0
  9 12  2  0     0  0
  9 17  1  0     0  0
 10 12  1  0     0  0
 10 19  1  0     0  0
 11 15  2  0     0  0
 11 16  1  0     0  0
 12 18  1  0     0  0
 13 15  1  0     0  0
 14 16  2  0     0  0
 19 21  1  0     0  0
 21 22  1  0     0  0
 22 23  1  0     0  0
 23 24  1  0     0  0
 24 25  1  0     0  0
 25 26  1  0     0  0
 26 27  1  0     0  0
 27 28  1  0     0  0
 28 29  1  0     0  0
 29 30  1  0     0  0
 30 31  1  0     0  0
 31 32  1  0     0  0
 32 33  1  0     0  0
 33 34  1  0     0  0
 34 35  1  0     0  0
 35 36  1  0     0  0
 36 37  1  0     0  0
M  END
> <standard_type>
IC50

> <# Confs.>
25

> <canonical_smiles>
O=C1C2=C(C(C(CCCCCCCCCCCCCCCCC)=O)=NN2)C(N1C3=CC=C(OC)C=C3)=O

> <standard_relation>
=

> <predicted_activity_value>
6.494850021680094

> <actual_activity_value>
6.267606240177032

> <Compound>
8

> <publication_ID>
nan

> <standard_units>
nM

> hash
16153934751459735447

$$$$
8_
XXILIB    08252103493D 0   0.00000     0.00000

 37 39  0     1  0            999 V2000
  -16.3584    2.5587    1.2278 O   0  0  0  0  0  2           0  0  0
  -10.5124    4.9674   -0.1036 O   0  0  0  0  0  2           0  0  0
  -10.1126    0.9034    2.2247 O   0  0  0  0  0  2           0  0  0
   -7.0599    0.2553    2.6358 O   0  0  0  0  0  2           0  0  0
   -7.4839    4.0946    0.3936 N   0  0  0  0  0  3           0  0  0
   -6.5196    3.2739    0.8754 N   0  0  0  0  0  3           0  0  0
  -10.7652    2.9018    1.0776 N   0  0  1  0  0  3           0  0  0
  -14.9979    2.5936    1.2738 C   0  0  0  0  0  4           0  0  0
   -8.7181    3.6289    0.6594 C   0  0  0  0  0  4           0  0  0
   -7.1928    2.2579    1.4618 C   0  0  0  0  0  4           0  0  0
  -12.1806    2.7982    1.1418 C   0  0  0  0  0  4           0  0  0
   -8.5733    2.4575    1.3348 C   0  0  0  0  0  4           0  0  0
  -14.3820    3.2441    0.2030 C   0  0  0  0  0  4           0  0  0
  -14.2034    2.0428    2.2802 C   0  0  0  0  0  4           0  0  0
  -12.9890    3.3489    0.1368 C   0  0  0  0  0  4           0  0  0
  -12.8081    2.1435    2.2127 C   0  0  0  0  0  4           0  0  0
  -10.0852    3.9741    0.4624 C   0  0  0  0  0  4           0  0  0
   -9.8835    1.9424    1.6278 C   0  0  0  0  0  4           0  0  0
   -6.4594    1.1852    2.0989 C   0  0  0  0  0  4           0  0  0
  -17.0479    1.9089    2.2917 C   0  0  0  0  0  4           0  0  0
   -4.9437    1.2054    2.0873 C   0  0  0  0  0  4           0  0  0
   -4.3140    0.0000    2.7832 C   0  0  0  0  0  4           0  0  0
   -2.7866    0.0000    2.7832 C   0  0  0  0  0  4           0  0  0
   -2.1570    0.0000    1.3916 C   0  0  0  0  0  4           0  0  0
   -0.6296    0.0000    1.3916 C   0  0  0  0  0  4           0  0  0
    0.0000    0.0000    0.0000 C   0  0  0  0  0  4           0  0  0
    1.5277   -0.0000    0.0000 C   0  0  0  0  0  4           0  0  0
    2.1573    0.0000   -1.3916 C   0  0  0  0  0  4           0  0  0
    3.6847   -0.0000   -1.3916 C   0  0  0  0  0  4           0  0  0
    4.3143    0.0000   -2.7832 C   0  0  0  0  0  4           0  0  0
    5.8416   -0.0000   -2.7832 C   0  0  0  0  0  4           0  0  0
    6.4712    0.0000   -4.1748 C   0  0  0  0  0  4           0  0  0
    7.9986   -0.0000   -4.1748 C   0  0  0  0  0  4           0  0  0
    8.6282    0.0000   -5.5664 C   0  0  0  0  0  4           0  0  0
   10.1556   -0.0000   -5.5664 C   0  0  0  0  0  4           0  0  0
   10.7852    0.0000   -6.9579 C   0  0  0  0  0  4           0  0  0
   12.3038   -0.0000   -6.8799 C   0  0  0  0  0  4           0  0  0
  1  8  1  0     0  0
  1 20  1  0     0  0
  2 17  2  0     0  0
  3 18  2  0     0  0
  4 19  2  0     0  0
  5  6  1  0     0  0
  5  9  1  0     0  0
  6 10  2  0     0  0
  7 11  1  0     0  0
  7 17  1  0     0  0
  7 18  1  0     0  0
  8 13  2  0     0  0
  8 14  1  0     0  0
  9 12  2  0     0  0
  9 17  1  0     0  0
 10 12  1  0     0  0
 10 19  1  0     0  0
 11 15  2  0     0  0
 11 16  1  0     0  0
 12 18  1  0     0  0
 13 15  1  0     0  0
 14 16  2  0     0  0
 19 21  1  0     0  0
 21 22  1  0     0  0
 22 23  1  0     0  0
 23 24  1  0     0  0
 24 25  1  0     0  0
 25 26  1  0     0  0
 26 27  1  0     0  0
 27 28  1  0     0  0
 28 29  1  0     0  0
 29 30  1  0     0  0
 30 31  1  0     0  0
 31 32  1  0     0  0
 32 33  1  0     0  0
 33 34  1  0     0  0
 34 35  1  0     0  0
 35 36  1  0     0  0
 36 37  1  0     0  0
M  END
> <standard_type>
IC50

> <# Confs.>
25

> <canonical_smiles>
O=C1C2=C(C(C(CCCCCCCCCCCCCCCCC)=O)=NN2)C(N1C3=CC=C(OC)C=C3)=O

> <standard_relation>
=

> <predicted_activity_value>
6.494850021680094

> <actual_activity_value>
6.267606240177032

> <Compound>
8

> <publication_ID>
nan

> <standard_units>
nM

> hash
16153934751459735447

$$$$
8_
XXILIB    08252103493D 0   0.00000     0.00000

 37 39  0     1  0            999 V2000
  -16.3584   -2.6263    1.3450 O   0  0  0  0  0  2           0  0  0
  -10.5124   -4.9837   -0.0753 O   0  0  0  0  0  2           0  0  0
  -10.1126   -0.9353    2.2801 O   0  0  0  0  0  2           0  0  0
   -7.0599   -0.2553    2.6358 O   0  0  0  0  0  2           0  0  0
   -7.4839   -4.1167    0.4320 N   0  0  0  0  0  3           0  0  0
   -6.5196   -3.2892    0.9018 N   0  0  0  0  0  3           0  0  0
  -10.7652   -2.9279    1.1229 N   0  0  1  0  0  3           0  0  0
  -14.9979   -2.6040    1.2917 C   0  0  0  0  0  4           0  0  0
   -8.7181   -3.6537    0.7023 C   0  0  0  0  0  4           0  0  0
   -7.1928   -2.2733    1.4885 C   0  0  0  0  0  4           0  0  0
  -12.1806   -2.8206    1.1805 C   0  0  0  0  0  4           0  0  0
   -8.5733   -2.4831    1.3791 C   0  0  0  0  0  4           0  0  0
  -14.3820   -3.8566    1.2638 C   0  0  0  0  0  4           0  0  0
  -14.2034   -1.4570    1.2655 C   0  0  0  0  0  4           0  0  0
  -12.9890   -3.9663    1.2061 C   0  0  0  0  0  4           0  0  0
  -12.8081   -1.5658    1.2121 C   0  0  0  0  0  4           0  0  0
  -10.0852   -3.9969    0.5019 C   0  0  0  0  0  4           0  0  0
   -9.8835   -1.9717    1.6787 C   0  0  0  0  0  4           0  0  0
   -6.4594   -1.1852    2.0989 C   0  0  0  0  0  4           0  0  0
  -17.0479   -1.3800    1.3758 C   0  0  0  0  0  4           0  0  0
   -4.9437   -1.2054    2.0873 C   0  0  0  0  0  4           0  0  0
   -4.3140   -0.0000    2.7832 C   0  0  0  0  0  4           0  0  0
   -2.7866    0.0000    2.7832 C   0  0  0  0  0  4           0  0  0
   -2.1570    0.0000    1.3916 C   0  0  0  0  0  4           0  0  0
   -0.6296   -0.0000    1.3916 C   0  0  0  0  0  4           0  0  0
    0.0000    0.0000    0.0000 C   0  0  0  0  0  4           0  0  0
    1.5277   -0.0000    0.0000 C   0  0  0  0  0  4           0  0  0
    2.1573    0.0000   -1.3916 C   0  0  0  0  0  4           0  0  0
    3.6847   -0.0000   -1.3916 C   0  0  0  0  0  4           0  0  0
    4.3143    0.0000   -2.7832 C   0  0  0  0  0  4           0  0  0
    5.8416   -0.0000   -2.7832 C   0  0  0  0  0  4           0  0  0
    6.4712    0.0000   -4.1748 C   0  0  0  0  0  4           0  0  0
    7.9986   -0.0000   -4.1748 C   0  0  0  0  0  4           0  0  0
    8.6282    0.0000   -5.5664 C   0  0  0  0  0  4           0  0  0
   10.1556   -0.0000   -5.5664 C   0  0  0  0  0  4           0  0  0
   10.7852    0.0000   -6.9579 C   0  0  0  0  0  4           0  0  0
   12.3038   -0.0000   -6.8799 C   0  0  0  0  0  4           0  0  0
  1  8  1  0     0  0
  1 20  1  0     0  0
  2 17  2  0     0  0
  3 18  2  0     0  0
  4 19  2  0     0  0
  5  6  1  0     0  0
  5  9  1  0     0  0
  6 10  2  0     0  0
  7 11  1  0     0  0
  7 17  1  0     0  0
  7 18  1  0     0  0
  8 13  2  0     0  0
  8 14  1  0     0  0
  9 12  2  0     0  0
  9 17  1  0     0  0
 10 12  1  0     0  0
 10 19  1  0     0  0
 11 15  2  0     0  0
 11 16  1  0     0  0
 12 18  1  0     0  0
 13 15  1  0     0  0
 14 16  2  0     0  0
 19 21  1  0     0  0
 21 22  1  0     0  0
 22 23  1  0     0  0
 23 24  1  0     0  0
 24 25  1  0     0  0
 25 26  1  0     0  0
 26 27  1  0     0  0
 27 28  1  0     0  0
 28 29  1  0     0  0
 29 30  1  0     0  0
 30 31  1  0     0  0
 31 32  1  0     0  0
 32 33  1  0     0  0
 33 34  1  0     0  0
 34 35  1  0     0  0
 35 36  1  0     0  0
 36 37  1  0     0  0
M  END
> <standard_type>
IC50

> <# Confs.>
25

> <canonical_smiles>
O=C1C2=C(C(C(CCCCCCCCCCCCCCCCC)=O)=NN2)C(N1C3=CC=C(OC)C=C3)=O

> <standard_relation>
=

> <predicted_activity_value>
6.494850021680094

> <actual_activity_value>
6.267606240177032

> <Compound>
8

> <publication_ID>
nan

> <standard_units>
nM

> hash
16153934751459735447

$$$$
8_
XXILIB    08252103493D 0   0.00000     0.00000

 37 39  0     1  0            999 V2000
   -3.4212    9.9512    9.7862 O   0  0  0  0  0  2           0  0  0
   -7.0588    6.5838    5.6388 O   0  0  0  0  0  2           0  0  0
   -3.4509    3.9732    7.1436 O   0  0  0  0  0  2           0  0  0
   -3.5626    1.1620    5.7320 O   0  0  0  0  0  2           0  0  0
   -6.9975    3.6631    4.3558 N   0  0  0  0  0  3           0  0  0
   -6.4722    2.4279    4.1715 N   0  0  0  0  0  3           0  0  0
   -5.1168    5.6225    6.6538 N   0  0  1  0  0  3           0  0  0
   -3.7950    8.8416    9.0910 C   0  0  0  0  0  4           0  0  0
   -6.2757    4.3904    5.2279 C   0  0  0  0  0  4           0  0  0
   -5.3795    2.3956    4.9681 C   0  0  0  0  0  4           0  0  0
   -4.6762    6.6996    7.4687 C   0  0  0  0  0  4           0  0  0
   -5.2391    3.6145    5.6435 C   0  0  0  0  0  4           0  0  0
   -4.4791    9.0875    7.8991 C   0  0  0  0  0  4           0  0  0
   -3.5521    7.5216    9.4735 C   0  0  0  0  0  4           0  0  0
   -4.9136    8.0300    7.0938 C   0  0  0  0  0  4           0  0  0
   -3.9906    6.4617    8.6699 C   0  0  0  0  0  4           0  0  0
   -6.2594    5.6813    5.8280 C   0  0  0  0  0  4           0  0  0
   -4.4548    4.3749    6.5787 C   0  0  0  0  0  4           0  0  0
   -4.5590    1.2043    5.0116 C   0  0  0  0  0  4           0  0  0
   -2.7189    9.7683   11.0122 C   0  0  0  0  0  4           0  0  0
   -4.9437    0.0000    4.1750 C   0  0  0  0  0  4           0  0  0
   -4.3140    0.0000    2.7832 C   0  0  0  0  0  4           0  0  0
   -2.7866    0.0000    2.7832 C   0  0  0  0  0  4           0  0  0
   -2.1570    0.0000    1.3916 C   0  0  0  0  0  4           0  0  0
   -0.6296   -0.0000    1.3916 C   0  0  0  0  0  4           0  0  0
    0.0000    0.0000    0.0000 C   0  0  0  0  0  4           0  0  0
    1.5277   -0.0000    0.0000 C   0  0  0  0  0  4           0  0  0
    2.1573    0.0000   -1.3916 C   0  0  0  0  0  4           0  0  0
    3.6847   -0.0000   -1.3916 C   0  0  0  0  0  4           0  0  0
    4.3143    0.0000   -2.7832 C   0  0  0  0  0  4           0  0  0
    5.8416   -0.0000   -2.7832 C   0  0  0  0  0  4           0  0  0
    6.4712    0.0000   -4.1748 C   0  0  0  0  0  4           0  0  0
    7.9986   -0.0000   -4.1748 C   0  0  0  0  0  4           0  0  0
    8.6282    0.0000   -5.5664 C   0  0  0  0  0  4           0  0  0
   10.1556   -0.0000   -5.5664 C   0  0  0  0  0  4           0  0  0
   10.7852    0.0000   -6.9579 C   0  0  0  0  0  4           0  0  0
   12.3038   -0.0000   -6.8799 C   0  0  0  0  0  4           0  0  0
  1  8  1  0     0  0
  1 20  1  0     0  0
  2 17  2  0     0  0
  3 18  2  0     0  0
  4 19  2  0     0  0
  5  6  1  0     0  0
  5  9  1  0     0  0
  6 10  2  0     0  0
  7 11  1  0     0  0
  7 17  1  0     0  0
  7 18  1  0     0  0
  8 13  2  0     0  0
  8 14  1  0     0  0
  9 12  2  0     0  0
  9 17  1  0     0  0
 10 12  1  0     0  0
 10 19  1  0     0  0
 11 15  2  0     0  0
 11 16  1  0     0  0
 12 18  1  0     0  0
 13 15  1  0     0  0
 14 16  2  0     0  0
 19 21  1  0     0  0
 21 22  1  0     0  0
 22 23  1  0     0  0
 23 24  1  0     0  0
 24 25  1  0     0  0
 25 26  1  0     0  0
 26 27  1  0     0  0
 27 28  1  0     0  0
 28 29  1  0     0  0
 29 30  1  0     0  0
 30 31  1  0     0  0
 31 32  1  0     0  0
 32 33  1  0     0  0
 33 34  1  0     0  0
 34 35  1  0     0  0
 35 36  1  0     0  0
 36 37  1  0     0  0
M  END
> <standard_type>
IC50

> <# Confs.>
25

> <canonical_smiles>
O=C1C2=C(C(C(CCCCCCCCCCCCCCCCC)=O)=NN2)C(N1C3=CC=C(OC)C=C3)=O

> <standard_relation>
=

> <predicted_activity_value>
6.494850021680094

> <actual_activity_value>
6.267606240177032

> <Compound>
8

> <publication_ID>
nan

> <standard_units>
nM

> hash
16153934751459735447

$$$$
8_
XXILIB    08252103493D 0   0.00000     0.00000

 37 39  0     1  0            999 V2000
   -1.0927    9.6061   12.6834 O   0  0  0  0  0  2           0  0  0
   -4.1164    4.0368   11.4222 O   0  0  0  0  0  2           0  0  0
   -1.5636    5.3854    7.7126 O   0  0  0  0  0  2           0  0  0
   -1.9051    3.2665    5.4101 O   0  0  0  0  0  2           0  0  0
   -4.2883    2.0029    8.9698 N   0  0  0  0  0  3           0  0  0
   -3.9941    1.5851    7.7150 N   0  0  0  0  0  3           0  0  0
   -2.7062    5.0807    9.7951 N   0  0  1  0  0  3           0  0  0
   -1.4755    8.5587   11.9020 C   0  0  0  0  0  4           0  0  0
   -3.6817    3.1668    9.2664 C   0  0  0  0  0  4           0  0  0
   -3.1680    2.5350    7.2202 C   0  0  0  0  0  4           0  0  0
   -2.2937    6.2429   10.5004 C   0  0  0  0  0  4           0  0  0
   -2.9548    3.5348    8.1776 C   0  0  0  0  0  4           0  0  0
   -1.7704    7.3794   12.5887 C   0  0  0  0  0  4           0  0  0
   -1.5885    8.5798   10.5112 C   0  0  0  0  0  4           0  0  0
   -2.1777    6.2336   11.8980 C   0  0  0  0  0  4           0  0  0
   -1.9922    7.4316    9.8181 C   0  0  0  0  0  4           0  0  0
   -3.5720    4.1045   10.3320 C   0  0  0  0  0  4           0  0  0
   -2.2968    4.7783    8.4755 C   0  0  0  0  0  4           0  0  0
   -2.6572    2.4094    5.8720 C   0  0  0  0  0  4           0  0  0
   -0.7777   10.8391   12.0432 C   0  0  0  0  0  4           0  0  0
   -3.0419    1.2052    5.0355 C   0  0  0  0  0  4           0  0  0
   -2.4122    1.2052    3.6436 C   0  0  0  0  0  4           0  0  0
   -2.7866    0.0000    2.7832 C   0  0  0  0  0  4           0  0  0
   -2.1570    0.0000    1.3916 C   0  0  0  0  0  4           0  0  0
   -0.6296    0.0000    1.3916 C   0  0  0  0  0  4           0  0  0
    0.0000    0.0000    0.0000 C   0  0  0  0  0  4           0  0  0
    1.5277   -0.0000    0.0000 C   0  0  0  0  0  4           0  0  0
    2.1573    0.0000   -1.3916 C   0  0  0  0  0  4           0  0  0
    3.6847   -0.0000   -1.3916 C   0  0  0  0  0  4           0  0  0
    4.3143    0.0000   -2.7832 C   0  0  0  0  0  4           0  0  0
    5.8416   -0.0000   -2.7832 C   0  0  0  0  0  4           0  0  0
    6.4712    0.0000   -4.1748 C   0  0  0  0  0  4           0  0  0
    7.9986   -0.0000   -4.1748 C   0  0  0  0  0  4           0  0  0
    8.6282    0.0000   -5.5664 C   0  0  0  0  0  4           0  0  0
   10.1556   -0.0000   -5.5664 C   0  0  0  0  0  4           0  0  0
   10.7852    0.0000   -6.9579 C   0  0  0  0  0  4           0  0  0
   12.3038   -0.0000   -6.8799 C   0  0  0  0  0  4           0  0  0
  1  8  1  0     0  0
  1 20  1  0     0  0
  2 17  2  0     0  0
  3 18  2  0     0  0
  4 19  2  0     0  0
  5  6  1  0     0  0
  5  9  1  0     0  0
  6 10  2  0     0  0
  7 11  1  0     0  0
  7 17  1  0     0  0
  7 18  1  0     0  0
  8 13  2  0     0  0
  8 14  1  0     0  0
  9 12  2  0     0  0
  9 17  1  0     0  0
 10 12  1  0     0  0
 10 19  1  0     0  0
 11 15  2  0     0  0
 11 16  1  0     0  0
 12 18  1  0     0  0
 13 15  1  0     0  0
 14 16  2  0     0  0
 19 21  1  0     0  0
 21 22  1  0     0  0
 22 23  1  0     0  0
 23 24  1  0     0  0
 24 25  1  0     0  0
 25 26  1  0     0  0
 26 27  1  0     0  0
 27 28  1  0     0  0
 28 29  1  0     0  0
 29 30  1  0     0  0
 30 31  1  0     0  0
 31 32  1  0     0  0
 32 33  1  0     0  0
 33 34  1  0     0  0
 34 35  1  0     0  0
 35 36  1  0     0  0
 36 37  1  0     0  0
M  END
> <standard_type>
IC50

> <# Confs.>
25

> <canonical_smiles>
O=C1C2=C(C(C(CCCCCCCCCCCCCCCCC)=O)=NN2)C(N1C3=CC=C(OC)C=C3)=O

> <standard_relation>
=

> <predicted_activity_value>
6.494850021680094

> <actual_activity_value>
6.267606240177032

> <Compound>
8

> <publication_ID>
nan

> <standard_units>
nM

> hash
16153934751459735447

$$$$
8_
XXILIB    08252103493D 0   0.00000     0.00000

 37 39  0     1  0            999 V2000
  -16.3576   -0.0545    5.7714 O   0  0  0  0  0  2           0  0  0
  -10.5124    0.0163    8.5284 O   0  0  0  0  0  2           0  0  0
  -10.1126    0.0320    3.8448 O   0  0  0  0  0  2           0  0  0
   -7.0599   -0.0000    3.0779 O   0  0  0  0  0  2           0  0  0
   -7.4839    0.0222    7.5240 N   0  0  0  0  0  3           0  0  0
   -6.5196    0.0153    6.5724 N   0  0  0  0  0  3           0  0  0
  -10.7652    0.0262    6.1490 N   0  0  1  0  0  3           0  0  0
  -14.9977    0.0134    5.7806 C   0  0  0  0  0  4           0  0  0
   -8.7181    0.0248    6.9878 C   0  0  0  0  0  4           0  0  0
   -7.1928    0.0155    5.3993 C   0  0  0  0  0  4           0  0  0
  -12.1806    0.0224    6.0272 C   0  0  0  0  0  4           0  0  0
   -8.5733    0.0256    5.6357 C   0  0  0  0  0  4           0  0  0
  -14.3784   -0.5870    6.8785 C   0  0  0  0  0  4           0  0  0
  -14.2067    0.6210    4.8045 C   0  0  0  0  0  4           0  0  0
  -12.9854   -0.5861    7.0014 C   0  0  0  0  0  4           0  0  0
  -12.8117    0.6261    4.9287 C   0  0  0  0  0  4           0  0  0
  -10.0852    0.0228    7.3853 C   0  0  0  0  0  4           0  0  0
   -9.8835    0.0294    5.0430 C   0  0  0  0  0  4           0  0  0
   -6.4594   -0.0000    4.1518 C   0  0  0  0  0  4           0  0  0
  -17.0504    0.5397    4.6775 C   0  0  0  0  0  4           0  0  0
   -4.9437    0.0000    4.1750 C   0  0  0  0  0  4           0  0  0
   -4.3140   -0.0000    2.7832 C   0  0  0  0  0  4           0  0  0
   -2.7866    0.0000    2.7832 C   0  0  0  0  0  4           0  0  0
   -2.1570   -0.0000    1.3916 C   0  0  0  0  0  4           0  0  0
   -0.6296   -0.0000    1.3916 C   0  0  0  0  0  4           0  0  0
    0.0000   -0.0000    0.0000 C   0  0  0  0  0  4           0  0  0
    1.5277   -0.0000    0.0000 C   0  0  0  0  0  4           0  0  0
    2.1573    0.0000   -1.3916 C   0  0  0  0  0  4           0  0  0
    3.6847   -0.0000   -1.3916 C   0  0  0  0  0  4           0  0  0
    4.3143    0.0000   -2.7832 C   0  0  0  0  0  4           0  0  0
    5.8416   -0.0000   -2.7832 C   0  0  0  0  0  4           0  0  0
    6.4712    0.0000   -4.1748 C   0  0  0  0  0  4           0  0  0
    7.9986   -0.0000   -4.1748 C   0  0  0  0  0  4           0  0  0
    8.6282    0.0000   -5.5664 C   0  0  0  0  0  4           0  0  0
   10.1556   -0.0000   -5.5664 C   0  0  0  0  0  4           0  0  0
   10.7852   -1.2052   -4.8706 C   0  0  0  0  0  4           0  0  0
   12.3038   -1.1376   -4.9096 C   0  0  0  0  0  4           0  0  0
  1  8  1  0     0  0
  1 20  1  0     0  0
  2 17  2  0     0  0
  3 18  2  0     0  0
  4 19  2  0     0  0
  5  6  1  0     0  0
  5  9  1  0     0  0
  6 10  2  0     0  0
  7 11  1  0     0  0
  7 17  1  0     0  0
  7 18  1  0     0  0
  8 13  2  0     0  0
  8 14  1  0     0  0
  9 12  2  0     0  0
  9 17  1  0     0  0
 10 12  1  0     0  0
 10 19  1  0     0  0
 11 15  2  0     0  0
 11 16  1  0     0  0
 12 18  1  0     0  0
 13 15  1  0     0  0
 14 16  2  0     0  0
 19 21  1  0     0  0
 21 22  1  0     0  0
 22 23  1  0     0  0
 23 24  1  0     0  0
 24 25  1  0     0  0
 25 26  1  0     0  0
 26 27  1  0     0  0
 27 28  1  0     0  0
 28 29  1  0     0  0
 29 30  1  0     0  0
 30 31  1  0     0  0
 31 32  1  0     0  0
 32 33  1  0     0  0
 33 34  1  0     0  0
 34 35  1  0     0  0
 35 36  1  0     0  0
 36 37  1  0     0  0
M  END
> <standard_type>
IC50

> <# Confs.>
25

> <canonical_smiles>
O=C1C2=C(C(C(CCCCCCCCCCCCCCCCC)=O)=NN2)C(N1C3=CC=C(OC)C=C3)=O

> <standard_relation>
=

> <predicted_activity_value>
6.494850021680094

> <actual_activity_value>
6.267606240177032

> <Compound>
8

> <publication_ID>
nan

> <standard_units>
nM

> hash
16153934751459735447

$$$$
8_
XXILIB    08252103493D 0   0.00000     0.00000

 37 39  0     1  0            999 V2000
   -2.1487    8.0551   11.9320 O   0  0  0  0  0  2           0  0  0
   -3.9317    1.9310   10.8989 O   0  0  0  0  0  2           0  0  0
   -3.5776    4.2391    6.8191 O   0  0  0  0  0  2           0  0  0
   -4.3067    2.2783    4.4671 O   0  0  0  0  0  2           0  0  0
   -4.5959    0.1126    8.3625 N   0  0  0  0  0  3           0  0  0
   -4.7565   -0.1098    7.0358 N   0  0  0  0  0  3           0  0  0
   -3.6350    3.4614    9.0834 N   0  0  1  0  0  3           0  0  0
   -2.5479    6.9967   11.1738 C   0  0  0  0  0  4           0  0  0
   -4.2316    1.3826    8.6180 C   0  0  0  0  0  4           0  0  0
   -4.4763    1.0771    6.4508 C   0  0  0  0  0  4           0  0  0
   -3.2700    4.6430    9.7826 C   0  0  0  0  0  4           0  0  0
   -4.1404    2.0268    7.4239 C   0  0  0  0  0  4           0  0  0
   -2.2266    5.7396   11.6892 C   0  0  0  0  0  4           0  0  0
   -3.2305    7.0773    9.9592 C   0  0  0  0  0  4           0  0  0
   -2.5850    4.5741   11.0044 C   0  0  0  0  0  4           0  0  0
   -3.5861    5.9108    9.2705 C   0  0  0  0  0  4           0  0  0
   -3.9259    2.2346    9.7168 C   0  0  0  0  0  4           0  0  0
   -3.7505    3.3878    7.6757 C   0  0  0  0  0  4           0  0  0
   -4.5590    1.2043    5.0116 C   0  0  0  0  0  4           0  0  0
   -2.4464    9.3662   11.4610 C   0  0  0  0  0  4           0  0  0
   -4.9437    0.0000    4.1750 C   0  0  0  0  0  4           0  0  0
   -4.3140    0.0000    2.7832 C   0  0  0  0  0  4           0  0  0
   -2.7866    0.0000    2.7832 C   0  0  0  0  0  4           0  0  0
   -2.1570    0.0000    1.3916 C   0  0  0  0  0  4           0  0  0
   -0.6296   -0.0000    1.3916 C   0  0  0  0  0  4           0  0  0
    0.0000    0.0000    0.0000 C   0  0  0  0  0  4           0  0  0
    1.5277   -0.0000    0.0000 C   0  0  0  0  0  4           0  0  0
    2.1573    0.0000   -1.3916 C   0  0  0  0  0  4           0  0  0
    3.6847   -0.0000   -1.3916 C   0  0  0  0  0  4           0  0  0
    4.3143    0.0000   -2.7832 C   0  0  0  0  0  4           0  0  0
    5.8416   -0.0000   -2.7832 C   0  0  0  0  0  4           0  0  0
    6.4712    0.0000   -4.1748 C   0  0  0  0  0  4           0  0  0
    7.9986   -0.0000   -4.1748 C   0  0  0  0  0  4           0  0  0
    8.6282    0.0000   -5.5664 C   0  0  0  0  0  4           0  0  0
   10.1556   -0.0000   -5.5664 C   0  0  0  0  0  4           0  0  0
   10.7852    0.0000   -6.9579 C   0  0  0  0  0  4           0  0  0
   12.3038   -0.0000   -6.8799 C   0  0  0  0  0  4           0  0  0
  1  8  1  0     0  0
  1 20  1  0     0  0
  2 17  2  0     0  0
  3 18  2  0     0  0
  4 19  2  0     0  0
  5  6  1  0     0  0
  5  9  1  0     0  0
  6 10  2  0     0  0
  7 11  1  0     0  0
  7 17  1  0     0  0
  7 18  1  0     0  0
  8 13  2  0     0  0
  8 14  1  0     0  0
  9 12  2  0     0  0
  9 17  1  0     0  0
 10 12  1  0     0  0
 10 19  1  0     0  0
 11 15  2  0     0  0
 11 16  1  0     0  0
 12 18  1  0     0  0
 13 15  1  0     0  0
 14 16  2  0     0  0
 19 21  1  0     0  0
 21 22  1  0     0  0
 22 23  1  0     0  0
 23 24  1  0     0  0
 24 25  1  0     0  0
 25 26  1  0     0  0
 26 27  1  0     0  0
 27 28  1  0     0  0
 28 29  1  0     0  0
 29 30  1  0     0  0
 30 31  1  0     0  0
 31 32  1  0     0  0
 32 33  1  0     0  0
 33 34  1  0     0  0
 34 35  1  0     0  0
 35 36  1  0     0  0
 36 37  1  0     0  0
M  END
> <standard_type>
IC50

> <# Confs.>
25

> <canonical_smiles>
O=C1C2=C(C(C(CCCCCCCCCCCCCCCCC)=O)=NN2)C(N1C3=CC=C(OC)C=C3)=O

> <standard_relation>
=

> <predicted_activity_value>
6.494850021680094

> <actual_activity_value>
6.267606240177032

> <Compound>
8

> <publication_ID>
nan

> <standard_units>
nM

> hash
16153934751459735447

$$$$
8_
XXILIB    08252103493D 0   0.00000     0.00000

 37 39  0     1  0            999 V2000
    0.8091   10.8112   13.5439 O   0  0  0  0  0  2           0  0  0
   -2.2146    5.2419   12.2826 O   0  0  0  0  0  2           0  0  0
    0.3382    6.5906    8.5730 O   0  0  0  0  0  2           0  0  0
   -0.0033    4.4717    6.2705 O   0  0  0  0  0  2           0  0  0
   -2.3865    3.2080    9.8302 N   0  0  0  0  0  3           0  0  0
   -2.0923    2.7903    8.5755 N   0  0  0  0  0  3           0  0  0
   -0.8044    6.2859   10.6555 N   0  0  1  0  0  3           0  0  0
    0.4263    9.7638   12.7624 C   0  0  0  0  0  4           0  0  0
   -1.7799    4.3719   10.1269 C   0  0  0  0  0  4           0  0  0
   -1.2662    3.7402    8.0806 C   0  0  0  0  0  4           0  0  0
   -0.3919    7.4480   11.3608 C   0  0  0  0  0  4           0  0  0
   -1.0530    4.7399    9.0381 C   0  0  0  0  0  4           0  0  0
    0.1314    8.5845   13.4491 C   0  0  0  0  0  4           0  0  0
    0.3133    9.7849   11.3716 C   0  0  0  0  0  4           0  0  0
   -0.2759    7.4388   12.7584 C   0  0  0  0  0  4           0  0  0
   -0.0904    8.6368   10.6786 C   0  0  0  0  0  4           0  0  0
   -1.6702    5.3097   11.1924 C   0  0  0  0  0  4           0  0  0
   -0.3950    5.9834    9.3359 C   0  0  0  0  0  4           0  0  0
   -0.7555    3.6146    6.7324 C   0  0  0  0  0  4           0  0  0
    1.1241   12.0443   12.9036 C   0  0  0  0  0  4           0  0  0
   -1.1401    2.4103    5.8959 C   0  0  0  0  0  4           0  0  0
   -0.5104    2.4103    4.5040 C   0  0  0  0  0  4           0  0  0
   -0.8848    1.2052    3.6436 C   0  0  0  0  0  4           0  0  0
   -0.2552    1.2052    2.2520 C   0  0  0  0  0  4           0  0  0
   -0.6296    0.0000    1.3916 C   0  0  0  0  0  4           0  0  0
    0.0000    0.0000    0.0000 C   0  0  0  0  0  4           0  0  0
    1.5277   -0.0000    0.0000 C   0  0  0  0  0  4           0  0  0
    2.1573    0.0000   -1.3916 C   0  0  0  0  0  4           0  0  0
    3.6847   -0.0000   -1.3916 C   0  0  0  0  0  4           0  0  0
    4.3143    0.0000   -2.7832 C   0  0  0  0  0  4           0  0  0
    5.8416   -0.0000   -2.7832 C   0  0  0  0  0  4           0  0  0
    6.4712    0.0000   -4.1748 C   0  0  0  0  0  4           0  0  0
    7.9986   -0.0000   -4.1748 C   0  0  0  0  0  4           0  0  0
    8.6282    0.0000   -5.5664 C   0  0  0  0  0  4           0  0  0
   10.1556   -0.0000   -5.5664 C   0  0  0  0  0  4           0  0  0
   10.7852    0.0000   -6.9579 C   0  0  0  0  0  4           0  0  0
   12.3038   -0.0000   -6.8799 C   0  0  0  0  0  4           0  0  0
  1  8  1  0     0  0
  1 20  1  0     0  0
  2 17  2  0     0  0
  3 18  2  0     0  0
  4 19  2  0     0  0
  5  6  1  0     0  0
  5  9  1  0     0  0
  6 10  2  0     0  0
  7 11  1  0     0  0
  7 17  1  0     0  0
  7 18  1  0     0  0
  8 13  2  0     0  0
  8 14  1  0     0  0
  9 12  2  0     0  0
  9 17  1  0     0  0
 10 12  1  0     0  0
 10 19  1  0     0  0
 11 15  2  0     0  0
 11 16  1  0     0  0
 12 18  1  0     0  0
 13 15  1  0     0  0
 14 16  2  0     0  0
 19 21  1  0     0  0
 21 22  1  0     0  0
 22 23  1  0     0  0
 23 24  1  0     0  0
 24 25  1  0     0  0
 25 26  1  0     0  0
 26 27  1  0     0  0
 27 28  1  0     0  0
 28 29  1  0     0  0
 29 30  1  0     0  0
 30 31  1  0     0  0
 31 32  1  0     0  0
 32 33  1  0     0  0
 33 34  1  0     0  0
 34 35  1  0     0  0
 35 36  1  0     0  0
 36 37  1  0     0  0
M  END
> <standard_type>
IC50

> <# Confs.>
25

> <canonical_smiles>
O=C1C2=C(C(C(CCCCCCCCCCCCCCCCC)=O)=NN2)C(N1C3=CC=C(OC)C=C3)=O

> <standard_relation>
=

> <predicted_activity_value>
6.494850021680094

> <actual_activity_value>
6.267606240177032

> <Compound>
8

> <publication_ID>
nan

> <standard_units>
nM

> hash
16153934751459735447

$$$$
8_
XXILIB    08252103493D 0   0.00000     0.00000

 37 39  0     1  0            999 V2000
  -16.3584    0.0676    5.7768 O   0  0  0  0  0  2           0  0  0
  -10.5124    0.0163    8.5284 O   0  0  0  0  0  2           0  0  0
  -10.1126    0.0320    3.8448 O   0  0  0  0  0  2           0  0  0
   -7.0599   -0.0000    3.0779 O   0  0  0  0  0  2           0  0  0
   -7.4839    0.0222    7.5240 N   0  0  0  0  0  3           0  0  0
   -6.5196    0.0153    6.5724 N   0  0  0  0  0  3           0  0  0
  -10.7652    0.0262    6.1490 N   0  0  1  0  0  3           0  0  0
  -14.9979    0.0104    5.7840 C   0  0  0  0  0  4           0  0  0
   -8.7181    0.0248    6.9878 C   0  0  0  0  0  4           0  0  0
   -7.1928    0.0155    5.3993 C   0  0  0  0  0  4           0  0  0
  -12.1806    0.0224    6.0272 C   0  0  0  0  0  4           0  0  0
   -8.5733    0.0256    5.6357 C   0  0  0  0  0  4           0  0  0
  -14.3820    0.6125    6.8828 C   0  0  0  0  0  4           0  0  0
  -14.2034   -0.5858    4.8038 C   0  0  0  0  0  4           0  0  0
  -12.9890    0.6174    7.0066 C   0  0  0  0  0  4           0  0  0
  -12.8081   -0.5777    4.9247 C   0  0  0  0  0  4           0  0  0
  -10.0852    0.0228    7.3853 C   0  0  0  0  0  4           0  0  0
   -9.8835    0.0294    5.0430 C   0  0  0  0  0  4           0  0  0
   -6.4594   -0.0000    4.1518 C   0  0  0  0  0  4           0  0  0
  -17.0479   -0.5288    4.6820 C   0  0  0  0  0  4           0  0  0
   -4.9437    0.0000    4.1750 C   0  0  0  0  0  4           0  0  0
   -4.3140   -0.0000    2.7832 C   0  0  0  0  0  4           0  0  0
   -2.7866    0.0000    2.7832 C   0  0  0  0  0  4           0  0  0
   -2.1570   -0.0000    1.3916 C   0  0  0  0  0  4           0  0  0
   -0.6296   -0.0000    1.3916 C   0  0  0  0  0  4           0  0  0
    0.0000   -0.0000    0.0000 C   0  0  0  0  0  4           0  0  0
    1.5277    0.0000   -0.0000 C   0  0  0  0  0  4           0  0  0
    2.1573   -1.2052    0.6958 C   0  0  0  0  0  4           0  0  0
    3.6847   -1.2052    0.6958 C   0  0  0  0  0  4           0  0  0
    4.3143   -2.4103    1.3916 C   0  0  0  0  0  4           0  0  0
    5.8416   -2.4103    1.3916 C   0  0  0  0  0  4           0  0  0
    6.4712   -3.6155    2.0874 C   0  0  0  0  0  4           0  0  0
    7.9986   -3.6155    2.0874 C   0  0  0  0  0  4           0  0  0
    8.6282   -4.8206    2.7832 C   0  0  0  0  0  4           0  0  0
   10.1556   -4.8206    2.7832 C   0  0  0  0  0  4           0  0  0
   10.7852   -6.0258    3.4790 C   0  0  0  0  0  4           0  0  0
   12.3038   -5.9582    3.4400 C   0  0  0  0  0  4           0  0  0
  1  8  1  0     0  0
  1 20  1  0     0  0
  2 17  2  0     0  0
  3 18  2  0     0  0
  4 19  2  0     0  0
  5  6  1  0     0  0
  5  9  1  0     0  0
  6 10  2  0     0  0
  7 11  1  0     0  0
  7 17  1  0     0  0
  7 18  1  0     0  0
  8 13  2  0     0  0
  8 14  1  0     0  0
  9 12  2  0     0  0
  9 17  1  0     0  0
 10 12  1  0     0  0
 10 19  1  0     0  0
 11 15  2  0     0  0
 11 16  1  0     0  0
 12 18  1  0     0  0
 13 15  1  0     0  0
 14 16  2  0     0  0
 19 21  1  0     0  0
 21 22  1  0     0  0
 22 23  1  0     0  0
 23 24  1  0     0  0
 24 25  1  0     0  0
 25 26  1  0     0  0
 26 27  1  0     0  0
 27 28  1  0     0  0
 28 29  1  0     0  0
 29 30  1  0     0  0
 30 31  1  0     0  0
 31 32  1  0     0  0
 32 33  1  0     0  0
 33 34  1  0     0  0
 34 35  1  0     0  0
 35 36  1  0     0  0
 36 37  1  0     0  0
M  END
> <standard_type>
IC50

> <# Confs.>
25

> <canonical_smiles>
O=C1C2=C(C(C(CCCCCCCCCCCCCCCCC)=O)=NN2)C(N1C3=CC=C(OC)C=C3)=O

> <standard_relation>
=

> <predicted_activity_value>
6.494850021680094

> <actual_activity_value>
6.267606240177032

> <Compound>
8

> <publication_ID>
nan

> <standard_units>
nM

> hash
16153934751459735447

$$$$
8_
XXILIB    08252103493D 0   0.00000     0.00000

 37 39  0     1  0            999 V2000
  -16.3584    0.0676    5.7768 O   0  0  0  0  0  2           0  0  0
  -10.5124    0.0163    8.5284 O   0  0  0  0  0  2           0  0  0
  -10.1126    0.0320    3.8448 O   0  0  0  0  0  2           0  0  0
   -7.0599   -0.0000    3.0779 O   0  0  0  0  0  2           0  0  0
   -7.4839    0.0222    7.5240 N   0  0  0  0  0  3           0  0  0
   -6.5196    0.0153    6.5724 N   0  0  0  0  0  3           0  0  0
  -10.7652    0.0262    6.1490 N   0  0  1  0  0  3           0  0  0
  -14.9979    0.0104    5.7840 C   0  0  0  0  0  4           0  0  0
   -8.7181    0.0248    6.9878 C   0  0  0  0  0  4           0  0  0
   -7.1928    0.0155    5.3993 C   0  0  0  0  0  4           0  0  0
  -12.1806    0.0224    6.0272 C   0  0  0  0  0  4           0  0  0
   -8.5733    0.0256    5.6357 C   0  0  0  0  0  4           0  0  0
  -14.3820    0.6125    6.8828 C   0  0  0  0  0  4           0  0  0
  -14.2034   -0.5858    4.8038 C   0  0  0  0  0  4           0  0  0
  -12.9890    0.6174    7.0066 C   0  0  0  0  0  4           0  0  0
  -12.8081   -0.5777    4.9247 C   0  0  0  0  0  4           0  0  0
  -10.0852    0.0228    7.3853 C   0  0  0  0  0  4           0  0  0
   -9.8835    0.0294    5.0430 C   0  0  0  0  0  4           0  0  0
   -6.4594   -0.0000    4.1518 C   0  0  0  0  0  4           0  0  0
  -17.0479   -0.5288    4.6820 C   0  0  0  0  0  4           0  0  0
   -4.9437    0.0000    4.1750 C   0  0  0  0  0  4           0  0  0
   -4.3140   -0.0000    2.7832 C   0  0  0  0  0  4           0  0  0
   -2.7866    0.0000    2.7832 C   0  0  0  0  0  4           0  0  0
   -2.1570   -0.0000    1.3916 C   0  0  0  0  0  4           0  0  0
   -0.6296   -0.0000    1.3916 C   0  0  0  0  0  4           0  0  0
    0.0000   -0.0000    0.0000 C   0  0  0  0  0  4           0  0  0
    1.5277    0.0000   -0.0000 C   0  0  0  0  0  4           0  0  0
    2.1573    0.0000   -1.3916 C   0  0  0  0  0  4           0  0  0
    1.7829    1.2052   -2.2520 C   0  0  0  0  0  4           0  0  0
    2.4125    1.2052   -3.6436 C   0  0  0  0  0  4           0  0  0
    2.0380    2.4103   -4.5040 C   0  0  0  0  0  4           0  0  0
    2.6676    2.4103   -5.8956 C   0  0  0  0  0  4           0  0  0
    2.2932    3.6155   -6.7561 C   0  0  0  0  0  4           0  0  0
    2.9228    3.6155   -8.1477 C   0  0  0  0  0  4           0  0  0
    2.5484    4.8206   -9.0081 C   0  0  0  0  0  4           0  0  0
    3.1780    4.8206  -10.3997 C   0  0  0  0  0  4           0  0  0
    2.7618    6.0467  -11.1970 C   0  0  0  0  0  4           0  0  0
  1  8  1  0     0  0
  1 20  1  0     0  0
  2 17  2  0     0  0
  3 18  2  0     0  0
  4 19  2  0     0  0
  5  6  1  0     0  0
  5  9  1  0     0  0
  6 10  2  0     0  0
  7 11  1  0     0  0
  7 17  1  0     0  0
  7 18  1  0     0  0
  8 13  2  0     0  0
  8 14  1  0     0  0
  9 12  2  0     0  0
  9 17  1  0     0  0
 10 12  1  0     0  0
 10 19  1  0     0  0
 11 15  2  0     0  0
 11 16  1  0     0  0
 12 18  1  0     0  0
 13 15  1  0     0  0
 14 16  2  0     0  0
 19 21  1  0     0  0
 21 22  1  0     0  0
 22 23  1  0     0  0
 23 24  1  0     0  0
 24 25  1  0     0  0
 25 26  1  0     0  0
 26 27  1  0     0  0
 27 28  1  0     0  0
 28 29  1  0     0  0
 29 30  1  0     0  0
 30 31  1  0     0  0
 31 32  1  0     0  0
 32 33  1  0     0  0
 33 34  1  0     0  0
 34 35  1  0     0  0
 35 36  1  0     0  0
 36 37  1  0     0  0
M  END
> <standard_type>
IC50

> <# Confs.>
25

> <canonical_smiles>
O=C1C2=C(C(C(CCCCCCCCCCCCCCCCC)=O)=NN2)C(N1C3=CC=C(OC)C=C3)=O

> <standard_relation>
=

> <predicted_activity_value>
6.494850021680094

> <actual_activity_value>
6.267606240177032

> <Compound>
8

> <publication_ID>
nan

> <standard_units>
nM

> hash
16153934751459735447

$$$$
8_
XXILIB    08252103493D 0   0.00000     0.00000

 37 39  0     1  0            999 V2000
  -16.3584    0.0676    5.7768 O   0  0  0  0  0  2           0  0  0
  -10.5124    0.0163    8.5284 O   0  0  0  0  0  2           0  0  0
  -10.1126    0.0320    3.8448 O   0  0  0  0  0  2           0  0  0
   -7.0599   -0.0000    3.0779 O   0  0  0  0  0  2           0  0  0
   -7.4839    0.0222    7.5240 N   0  0  0  0  0  3           0  0  0
   -6.5196    0.0153    6.5724 N   0  0  0  0  0  3           0  0  0
  -10.7652    0.0262    6.1490 N   0  0  1  0  0  3           0  0  0
  -14.9979    0.0104    5.7840 C   0  0  0  0  0  4           0  0  0
   -8.7181    0.0248    6.9878 C   0  0  0  0  0  4           0  0  0
   -7.1928    0.0155    5.3993 C   0  0  0  0  0  4           0  0  0
  -12.1806    0.0224    6.0272 C   0  0  0  0  0  4           0  0  0
   -8.5733    0.0256    5.6357 C   0  0  0  0  0  4           0  0  0
  -14.3820    0.6125    6.8828 C   0  0  0  0  0  4           0  0  0
  -14.2034   -0.5858    4.8038 C   0  0  0  0  0  4           0  0  0
  -12.9890    0.6174    7.0066 C   0  0  0  0  0  4           0  0  0
  -12.8081   -0.5777    4.9247 C   0  0  0  0  0  4           0  0  0
  -10.0852    0.0228    7.3853 C   0  0  0  0  0  4           0  0  0
   -9.8835    0.0294    5.0430 C   0  0  0  0  0  4           0  0  0
   -6.4594   -0.0000    4.1518 C   0  0  0  0  0  4           0  0  0
  -17.0479   -0.5288    4.6820 C   0  0  0  0  0  4           0  0  0
   -4.9437    0.0000    4.1750 C   0  0  0  0  0  4           0  0  0
   -4.3140   -0.0000    2.7832 C   0  0  0  0  0  4           0  0  0
   -2.7866    0.0000    2.7832 C   0  0  0  0  0  4           0  0  0
   -2.1570   -0.0000    1.3916 C   0  0  0  0  0  4           0  0  0
   -0.6296   -0.0000    1.3916 C   0  0  0  0  0  4           0  0  0
    0.0000   -0.0000    0.0000 C   0  0  0  0  0  4           0  0  0
    1.5277   -0.0000    0.0000 C   0  0  0  0  0  4           0  0  0
    2.1573    0.0000   -1.3916 C   0  0  0  0  0  4           0  0  0
    3.6847   -0.0000   -1.3916 C   0  0  0  0  0  4           0  0  0
    4.3143   -0.0000   -2.7832 C   0  0  0  0  0  4           0  0  0
    3.9398    1.2052   -3.6436 C   0  0  0  0  0  4           0  0  0
    4.5694    1.2052   -5.0352 C   0  0  0  0  0  4           0  0  0
    4.1950    2.4103   -5.8956 C   0  0  0  0  0  4           0  0  0
    4.8246    2.4103   -7.2872 C   0  0  0  0  0  4           0  0  0
    4.4502    3.6155   -8.1477 C   0  0  0  0  0  4           0  0  0
    5.0798    3.6155   -9.5392 C   0  0  0  0  0  4           0  0  0
    4.6636    4.8415  -10.3366 C   0  0  0  0  0  4           0  0  0
  1  8  1  0     0  0
  1 20  1  0     0  0
  2 17  2  0     0  0
  3 18  2  0     0  0
  4 19  2  0     0  0
  5  6  1  0     0  0
  5  9  1  0     0  0
  6 10  2  0     0  0
  7 11  1  0     0  0
  7 17  1  0     0  0
  7 18  1  0     0  0
  8 13  2  0     0  0
  8 14  1  0     0  0
  9 12  2  0     0  0
  9 17  1  0     0  0
 10 12  1  0     0  0
 10 19  1  0     0  0
 11 15  2  0     0  0
 11 16  1  0     0  0
 12 18  1  0     0  0
 13 15  1  0     0  0
 14 16  2  0     0  0
 19 21  1  0     0  0
 21 22  1  0     0  0
 22 23  1  0     0  0
 23 24  1  0     0  0
 24 25  1  0     0  0
 25 26  1  0     0  0
 26 27  1  0     0  0
 27 28  1  0     0  0
 28 29  1  0     0  0
 29 30  1  0     0  0
 30 31  1  0     0  0
 31 32  1  0     0  0
 32 33  1  0     0  0
 33 34  1  0     0  0
 34 35  1  0     0  0
 35 36  1  0     0  0
 36 37  1  0     0  0
M  END
> <standard_type>
IC50

> <# Confs.>
25

> <canonical_smiles>
O=C1C2=C(C(C(CCCCCCCCCCCCCCCCC)=O)=NN2)C(N1C3=CC=C(OC)C=C3)=O

> <standard_relation>
=

> <predicted_activity_value>
6.494850021680094

> <actual_activity_value>
6.267606240177032

> <Compound>
8

> <publication_ID>
nan

> <standard_units>
nM

> hash
16153934751459735447

$$$$
8_
XXILIB    08252103493D 0   0.00000     0.00000

 37 39  0     1  0            999 V2000
  -16.3584    0.0676    5.7768 O   0  0  0  0  0  2           0  0  0
  -10.5124    0.0163    8.5284 O   0  0  0  0  0  2           0  0  0
  -10.1126    0.0320    3.8448 O   0  0  0  0  0  2           0  0  0
   -7.0599   -0.0000    3.0779 O   0  0  0  0  0  2           0  0  0
   -7.4839    0.0222    7.5240 N   0  0  0  0  0  3           0  0  0
   -6.5196    0.0153    6.5724 N   0  0  0  0  0  3           0  0  0
  -10.7652    0.0262    6.1490 N   0  0  1  0  0  3           0  0  0
  -14.9979    0.0104    5.7840 C   0  0  0  0  0  4           0  0  0
   -8.7181    0.0248    6.9878 C   0  0  0  0  0  4           0  0  0
   -7.1928    0.0155    5.3993 C   0  0  0  0  0  4           0  0  0
  -12.1806    0.0224    6.0272 C   0  0  0  0  0  4           0  0  0
   -8.5733    0.0256    5.6357 C   0  0  0  0  0  4           0  0  0
  -14.3820    0.6125    6.8828 C   0  0  0  0  0  4           0  0  0
  -14.2034   -0.5858    4.8038 C   0  0  0  0  0  4           0  0  0
  -12.9890    0.6174    7.0066 C   0  0  0  0  0  4           0  0  0
  -12.8081   -0.5777    4.9247 C   0  0  0  0  0  4           0  0  0
  -10.0852    0.0228    7.3853 C   0  0  0  0  0  4           0  0  0
   -9.8835    0.0294    5.0430 C   0  0  0  0  0  4           0  0  0
   -6.4594   -0.0000    4.1518 C   0  0  0  0  0  4           0  0  0
  -17.0479   -0.5288    4.6820 C   0  0  0  0  0  4           0  0  0
   -4.9437    0.0000    4.1750 C   0  0  0  0  0  4           0  0  0
   -4.3140   -0.0000    2.7832 C   0  0  0  0  0  4           0  0  0
   -2.7866    0.0000    2.7832 C   0  0  0  0  0  4           0  0  0
   -2.1570   -0.0000    1.3916 C   0  0  0  0  0  4           0  0  0
   -0.6296   -0.0000    1.3916 C   0  0  0  0  0  4           0  0  0
    0.0000   -0.0000    0.0000 C   0  0  0  0  0  4           0  0  0
    1.5277   -0.0000   -0.0000 C   0  0  0  0  0  4           0  0  0
    2.1573    0.0000   -1.3916 C   0  0  0  0  0  4           0  0  0
    3.6847   -0.0000   -1.3916 C   0  0  0  0  0  4           0  0  0
    4.3143   -1.2052   -0.6958 C   0  0  0  0  0  4           0  0  0
    5.8416   -1.2052   -0.6958 C   0  0  0  0  0  4           0  0  0
    6.4712   -2.4103    0.0000 C   0  0  0  0  0  4           0  0  0
    7.9986   -2.4103    0.0000 C   0  0  0  0  0  4           0  0  0
    8.6282   -3.6155    0.6958 C   0  0  0  0  0  4           0  0  0
   10.1556   -3.6155    0.6958 C   0  0  0  0  0  4           0  0  0
   10.7852   -4.8206    1.3916 C   0  0  0  0  0  4           0  0  0
   12.3038   -4.7530    1.3526 C   0  0  0  0  0  4           0  0  0
  1  8  1  0     0  0
  1 20  1  0     0  0
  2 17  2  0     0  0
  3 18  2  0     0  0
  4 19  2  0     0  0
  5  6  1  0     0  0
  5  9  1  0     0  0
  6 10  2  0     0  0
  7 11  1  0     0  0
  7 17  1  0     0  0
  7 18  1  0     0  0
  8 13  2  0     0  0
  8 14  1  0     0  0
  9 12  2  0     0  0
  9 17  1  0     0  0
 10 12  1  0     0  0
 10 19  1  0     0  0
 11 15  2  0     0  0
 11 16  1  0     0  0
 12 18  1  0     0  0
 13 15  1  0     0  0
 14 16  2  0     0  0
 19 21  1  0     0  0
 21 22  1  0     0  0
 22 23  1  0     0  0
 23 24  1  0     0  0
 24 25  1  0     0  0
 25 26  1  0     0  0
 26 27  1  0     0  0
 27 28  1  0     0  0
 28 29  1  0     0  0
 29 30  1  0     0  0
 30 31  1  0     0  0
 31 32  1  0     0  0
 32 33  1  0     0  0
 33 34  1  0     0  0
 34 35  1  0     0  0
 35 36  1  0     0  0
 36 37  1  0     0  0
M  END
> <standard_type>
IC50

> <# Confs.>
25

> <canonical_smiles>
O=C1C2=C(C(C(CCCCCCCCCCCCCCCCC)=O)=NN2)C(N1C3=CC=C(OC)C=C3)=O

> <standard_relation>
=

> <predicted_activity_value>
6.494850021680094

> <actual_activity_value>
6.267606240177032

> <Compound>
8

> <publication_ID>
nan

> <standard_units>
nM

> hash
16153934751459735447

$$$$
8_
XXILIB    08252103493D 0   0.00000     0.00000

 37 39  0     1  0            999 V2000
  -16.3584    0.0676    5.7768 O   0  0  0  0  0  2           0  0  0
  -10.5124    0.0163    8.5284 O   0  0  0  0  0  2           0  0  0
  -10.1126    0.0320    3.8448 O   0  0  0  0  0  2           0  0  0
   -7.0599   -0.0000    3.0779 O   0  0  0  0  0  2           0  0  0
   -7.4839    0.0222    7.5240 N   0  0  0  0  0  3           0  0  0
   -6.5196    0.0153    6.5724 N   0  0  0  0  0  3           0  0  0
  -10.7652    0.0262    6.1490 N   0  0  1  0  0  3           0  0  0
  -14.9979    0.0104    5.7840 C   0  0  0  0  0  4           0  0  0
   -8.7181    0.0248    6.9878 C   0  0  0  0  0  4           0  0  0
   -7.1928    0.0155    5.3993 C   0  0  0  0  0  4           0  0  0
  -12.1806    0.0224    6.0272 C   0  0  0  0  0  4           0  0  0
   -8.5733    0.0256    5.6357 C   0  0  0  0  0  4           0  0  0
  -14.3820    0.6125    6.8828 C   0  0  0  0  0  4           0  0  0
  -14.2034   -0.5858    4.8038 C   0  0  0  0  0  4           0  0  0
  -12.9890    0.6174    7.0066 C   0  0  0  0  0  4           0  0  0
  -12.8081   -0.5777    4.9247 C   0  0  0  0  0  4           0  0  0
  -10.0852    0.0228    7.3853 C   0  0  0  0  0  4           0  0  0
   -9.8835    0.0294    5.0430 C   0  0  0  0  0  4           0  0  0
   -6.4594   -0.0000    4.1518 C   0  0  0  0  0  4           0  0  0
  -17.0479   -0.5288    4.6820 C   0  0  0  0  0  4           0  0  0
   -4.9437    0.0000    4.1750 C   0  0  0  0  0  4           0  0  0
   -4.3140   -0.0000    2.7832 C   0  0  0  0  0  4           0  0  0
   -2.7866    0.0000    2.7832 C   0  0  0  0  0  4           0  0  0
   -2.1570   -0.0000    1.3916 C   0  0  0  0  0  4           0  0  0
   -0.6296   -0.0000    1.3916 C   0  0  0  0  0  4           0  0  0
    0.0000   -0.0000    0.0000 C   0  0  0  0  0  4           0  0  0
    1.5277    0.0000   -0.0000 C   0  0  0  0  0  4           0  0  0
    2.1573    0.0000   -1.3916 C   0  0  0  0  0  4           0  0  0
    3.6847   -0.0000   -1.3916 C   0  0  0  0  0  4           0  0  0
    4.3143    0.0000   -2.7832 C   0  0  0  0  0  4           0  0  0
    5.8416   -0.0000   -2.7832 C   0  0  0  0  0  4           0  0  0
    6.4712   -1.2052   -2.0874 C   0  0  0  0  0  4           0  0  0
    7.9986   -1.2052   -2.0874 C   0  0  0  0  0  4           0  0  0
    8.6282   -2.4103   -1.3916 C   0  0  0  0  0  4           0  0  0
   10.1556   -2.4103   -1.3916 C   0  0  0  0  0  4           0  0  0
   10.7852   -3.6155   -0.6958 C   0  0  0  0  0  4           0  0  0
   12.3038   -3.5479   -0.7348 C   0  0  0  0  0  4           0  0  0
  1  8  1  0     0  0
  1 20  1  0     0  0
  2 17  2  0     0  0
  3 18  2  0     0  0
  4 19  2  0     0  0
  5  6  1  0     0  0
  5  9  1  0     0  0
  6 10  2  0     0  0
  7 11  1  0     0  0
  7 17  1  0     0  0
  7 18  1  0     0  0
  8 13  2  0     0  0
  8 14  1  0     0  0
  9 12  2  0     0  0
  9 17  1  0     0  0
 10 12  1  0     0  0
 10 19  1  0     0  0
 11 15  2  0     0  0
 11 16  1  0     0  0
 12 18  1  0     0  0
 13 15  1  0     0  0
 14 16  2  0     0  0
 19 21  1  0     0  0
 21 22  1  0     0  0
 22 23  1  0     0  0
 23 24  1  0     0  0
 24 25  1  0     0  0
 25 26  1  0     0  0
 26 27  1  0     0  0
 27 28  1  0     0  0
 28 29  1  0     0  0
 29 30  1  0     0  0
 30 31  1  0     0  0
 31 32  1  0     0  0
 32 33  1  0     0  0
 33 34  1  0     0  0
 34 35  1  0     0  0
 35 36  1  0     0  0
 36 37  1  0     0  0
M  END
> <standard_type>
IC50

> <# Confs.>
25

> <canonical_smiles>
O=C1C2=C(C(C(CCCCCCCCCCCCCCCCC)=O)=NN2)C(N1C3=CC=C(OC)C=C3)=O

> <standard_relation>
=

> <predicted_activity_value>
6.494850021680094

> <actual_activity_value>
6.267606240177032

> <Compound>
8

> <publication_ID>
nan

> <standard_units>
nM

> hash
16153934751459735447

$$$$
8_
XXILIB    08252103493D 0   0.00000     0.00000

 37 39  0     1  0            999 V2000
  -16.3584    0.0676    5.7768 O   0  0  0  0  0  2           0  0  0
  -10.5124    0.0163    8.5284 O   0  0  0  0  0  2           0  0  0
  -10.1126    0.0320    3.8448 O   0  0  0  0  0  2           0  0  0
   -7.0599   -0.0000    3.0779 O   0  0  0  0  0  2           0  0  0
   -7.4839    0.0222    7.5240 N   0  0  0  0  0  3           0  0  0
   -6.5196    0.0153    6.5724 N   0  0  0  0  0  3           0  0  0
  -10.7652    0.0262    6.1490 N   0  0  1  0  0  3           0  0  0
  -14.9979    0.0104    5.7840 C   0  0  0  0  0  4           0  0  0
   -8.7181    0.0248    6.9878 C   0  0  0  0  0  4           0  0  0
   -7.1928    0.0155    5.3993 C   0  0  0  0  0  4           0  0  0
  -12.1806    0.0224    6.0272 C   0  0  0  0  0  4           0  0  0
   -8.5733    0.0256    5.6357 C   0  0  0  0  0  4           0  0  0
  -14.3820    0.6125    6.8828 C   0  0  0  0  0  4           0  0  0
  -14.2034   -0.5858    4.8038 C   0  0  0  0  0  4           0  0  0
  -12.9890    0.6174    7.0066 C   0  0  0  0  0  4           0  0  0
  -12.8081   -0.5777    4.9247 C   0  0  0  0  0  4           0  0  0
  -10.0852    0.0228    7.3853 C   0  0  0  0  0  4           0  0  0
   -9.8835    0.0294    5.0430 C   0  0  0  0  0  4           0  0  0
   -6.4594   -0.0000    4.1518 C   0  0  0  0  0  4           0  0  0
  -17.0479   -0.5288    4.6820 C   0  0  0  0  0  4           0  0  0
   -4.9437    0.0000    4.1750 C   0  0  0  0  0  4           0  0  0
   -4.3140   -0.0000    2.7832 C   0  0  0  0  0  4           0  0  0
   -2.7866    0.0000    2.7832 C   0  0  0  0  0  4           0  0  0
   -2.1570   -0.0000    1.3916 C   0  0  0  0  0  4           0  0  0
   -0.6296   -0.0000    1.3916 C   0  0  0  0  0  4           0  0  0
    0.0000   -0.0000    0.0000 C   0  0  0  0  0  4           0  0  0
    1.5277    0.0000   -0.0000 C   0  0  0  0  0  4           0  0  0
    2.1573    0.0000   -1.3916 C   0  0  0  0  0  4           0  0  0
    3.6847   -0.0000   -1.3916 C   0  0  0  0  0  4           0  0  0
    4.3143    0.0000   -2.7832 C   0  0  0  0  0  4           0  0  0
    5.8416   -0.0000   -2.7832 C   0  0  0  0  0  4           0  0  0
    6.4712   -0.0000   -4.1748 C   0  0  0  0  0  4           0  0  0
    6.0968    1.2052   -5.0352 C   0  0  0  0  0  4           0  0  0
    6.7264    1.2052   -6.4268 C   0  0  0  0  0  4           0  0  0
    6.3520    2.4103   -7.2872 C   0  0  0  0  0  4           0  0  0
    6.9816    2.4103   -8.6788 C   0  0  0  0  0  4           0  0  0
    6.5654    3.6364   -9.4761 C   0  0  0  0  0  4           0  0  0
  1  8  1  0     0  0
  1 20  1  0     0  0
  2 17  2  0     0  0
  3 18  2  0     0  0
  4 19  2  0     0  0
  5  6  1  0     0  0
  5  9  1  0     0  0
  6 10  2  0     0  0
  7 11  1  0     0  0
  7 17  1  0     0  0
  7 18  1  0     0  0
  8 13  2  0     0  0
  8 14  1  0     0  0
  9 12  2  0     0  0
  9 17  1  0     0  0
 10 12  1  0     0  0
 10 19  1  0     0  0
 11 15  2  0     0  0
 11 16  1  0     0  0
 12 18  1  0     0  0
 13 15  1  0     0  0
 14 16  2  0     0  0
 19 21  1  0     0  0
 21 22  1  0     0  0
 22 23  1  0     0  0
 23 24  1  0     0  0
 24 25  1  0     0  0
 25 26  1  0     0  0
 26 27  1  0     0  0
 27 28  1  0     0  0
 28 29  1  0     0  0
 29 30  1  0     0  0
 30 31  1  0     0  0
 31 32  1  0     0  0
 32 33  1  0     0  0
 33 34  1  0     0  0
 34 35  1  0     0  0
 35 36  1  0     0  0
 36 37  1  0     0  0
M  END
> <standard_type>
IC50

> <# Confs.>
25

> <canonical_smiles>
O=C1C2=C(C(C(CCCCCCCCCCCCCCCCC)=O)=NN2)C(N1C3=CC=C(OC)C=C3)=O

> <standard_relation>
=

> <predicted_activity_value>
6.494850021680094

> <actual_activity_value>
6.267606240177032

> <Compound>
8

> <publication_ID>
nan

> <standard_units>
nM

> hash
16153934751459735447

$$$$
8_
XXILIB    08252103493D 0   0.00000     0.00000

 37 39  0     1  0            999 V2000
  -16.3584    0.0676    5.7768 O   0  0  0  0  0  2           0  0  0
  -10.5124    0.0163    8.5284 O   0  0  0  0  0  2           0  0  0
  -10.1126    0.0320    3.8448 O   0  0  0  0  0  2           0  0  0
   -7.0599   -0.0000    3.0779 O   0  0  0  0  0  2           0  0  0
   -7.4839    0.0222    7.5240 N   0  0  0  0  0  3           0  0  0
   -6.5196    0.0153    6.5724 N   0  0  0  0  0  3           0  0  0
  -10.7652    0.0262    6.1490 N   0  0  1  0  0  3           0  0  0
  -14.9979    0.0104    5.7840 C   0  0  0  0  0  4           0  0  0
   -8.7181    0.0248    6.9878 C   0  0  0  0  0  4           0  0  0
   -7.1928    0.0155    5.3993 C   0  0  0  0  0  4           0  0  0
  -12.1806    0.0224    6.0272 C   0  0  0  0  0  4           0  0  0
   -8.5733    0.0256    5.6357 C   0  0  0  0  0  4           0  0  0
  -14.3820    0.6125    6.8828 C   0  0  0  0  0  4           0  0  0
  -14.2034   -0.5858    4.8038 C   0  0  0  0  0  4           0  0  0
  -12.9890    0.6174    7.0066 C   0  0  0  0  0  4           0  0  0
  -12.8081   -0.5777    4.9247 C   0  0  0  0  0  4           0  0  0
  -10.0852    0.0228    7.3853 C   0  0  0  0  0  4           0  0  0
   -9.8835    0.0294    5.0430 C   0  0  0  0  0  4           0  0  0
   -6.4594   -0.0000    4.1518 C   0  0  0  0  0  4           0  0  0
  -17.0479   -0.5288    4.6820 C   0  0  0  0  0  4           0  0  0
   -4.9437    0.0000    4.1750 C   0  0  0  0  0  4           0  0  0
   -4.3140   -0.0000    2.7832 C   0  0  0  0  0  4           0  0  0
   -2.7866    0.0000    2.7832 C   0  0  0  0  0  4           0  0  0
   -2.1570   -0.0000    1.3916 C   0  0  0  0  0  4           0  0  0
   -0.6296   -0.0000    1.3916 C   0  0  0  0  0  4           0  0  0
    0.0000   -0.0000    0.0000 C   0  0  0  0  0  4           0  0  0
    1.5277   -0.0000    0.0000 C   0  0  0  0  0  4           0  0  0
    2.1573    0.0000   -1.3916 C   0  0  0  0  0  4           0  0  0
    3.6847   -0.0000   -1.3916 C   0  0  0  0  0  4           0  0  0
    4.3143    0.0000   -2.7832 C   0  0  0  0  0  4           0  0  0
    5.8416   -0.0000   -2.7832 C   0  0  0  0  0  4           0  0  0
    6.4712    0.0000   -4.1748 C   0  0  0  0  0  4           0  0  0
    7.9986   -0.0000   -4.1748 C   0  0  0  0  0  4           0  0  0
    8.6282   -1.2052   -3.4790 C   0  0  0  0  0  4           0  0  0
   10.1556   -1.2052   -3.4790 C   0  0  0  0  0  4           0  0  0
   10.7852   -2.4103   -2.7832 C   0  0  0  0  0  4           0  0  0
   12.3038   -2.3427   -2.8222 C   0  0  0  0  0  4           0  0  0
  1  8  1  0     0  0
  1 20  1  0     0  0
  2 17  2  0     0  0
  3 18  2  0     0  0
  4 19  2  0     0  0
  5  6  1  0     0  0
  5  9  1  0     0  0
  6 10  2  0     0  0
  7 11  1  0     0  0
  7 17  1  0     0  0
  7 18  1  0     0  0
  8 13  2  0     0  0
  8 14  1  0     0  0
  9 12  2  0     0  0
  9 17  1  0     0  0
 10 12  1  0     0  0
 10 19  1  0     0  0
 11 15  2  0     0  0
 11 16  1  0     0  0
 12 18  1  0     0  0
 13 15  1  0     0  0
 14 16  2  0     0  0
 19 21  1  0     0  0
 21 22  1  0     0  0
 22 23  1  0     0  0
 23 24  1  0     0  0
 24 25  1  0     0  0
 25 26  1  0     0  0
 26 27  1  0     0  0
 27 28  1  0     0  0
 28 29  1  0     0  0
 29 30  1  0     0  0
 30 31  1  0     0  0
 31 32  1  0     0  0
 32 33  1  0     0  0
 33 34  1  0     0  0
 34 35  1  0     0  0
 35 36  1  0     0  0
 36 37  1  0     0  0
M  END
> <standard_type>
IC50

> <# Confs.>
25

> <canonical_smiles>
O=C1C2=C(C(C(CCCCCCCCCCCCCCCCC)=O)=NN2)C(N1C3=CC=C(OC)C=C3)=O

> <standard_relation>
=

> <predicted_activity_value>
6.494850021680094

> <actual_activity_value>
6.267606240177032

> <Compound>
8

> <publication_ID>
nan

> <standard_units>
nM

> hash
16153934751459735447

$$$$
8_
XXILIB    08252103493D 0   0.00000     0.00000

 37 39  0     1  0            999 V2000
  -16.3584    0.0676    5.7768 O   0  0  0  0  0  2           0  0  0
  -10.5124    0.0163    8.5284 O   0  0  0  0  0  2           0  0  0
  -10.1126    0.0320    3.8448 O   0  0  0  0  0  2           0  0  0
   -7.0599   -0.0000    3.0779 O   0  0  0  0  0  2           0  0  0
   -7.4839    0.0222    7.5240 N   0  0  0  0  0  3           0  0  0
   -6.5196    0.0153    6.5724 N   0  0  0  0  0  3           0  0  0
  -10.7652    0.0262    6.1490 N   0  0  1  0  0  3           0  0  0
  -14.9979    0.0104    5.7840 C   0  0  0  0  0  4           0  0  0
   -8.7181    0.0248    6.9878 C   0  0  0  0  0  4           0  0  0
   -7.1928    0.0155    5.3993 C   0  0  0  0  0  4           0  0  0
  -12.1806    0.0224    6.0272 C   0  0  0  0  0  4           0  0  0
   -8.5733    0.0256    5.6357 C   0  0  0  0  0  4           0  0  0
  -14.3820    0.6125    6.8828 C   0  0  0  0  0  4           0  0  0
  -14.2034   -0.5858    4.8038 C   0  0  0  0  0  4           0  0  0
  -12.9890    0.6174    7.0066 C   0  0  0  0  0  4           0  0  0
  -12.8081   -0.5777    4.9247 C   0  0  0  0  0  4           0  0  0
  -10.0852    0.0228    7.3853 C   0  0  0  0  0  4           0  0  0
   -9.8835    0.0294    5.0430 C   0  0  0  0  0  4           0  0  0
   -6.4594   -0.0000    4.1518 C   0  0  0  0  0  4           0  0  0
  -17.0479   -0.5288    4.6820 C   0  0  0  0  0  4           0  0  0
   -4.9437    0.0000    4.1750 C   0  0  0  0  0  4           0  0  0
   -4.3140   -0.0000    2.7832 C   0  0  0  0  0  4           0  0  0
   -2.7866    0.0000    2.7832 C   0  0  0  0  0  4           0  0  0
   -2.1570   -0.0000    1.3916 C   0  0  0  0  0  4           0  0  0
   -0.6296   -0.0000    1.3916 C   0  0  0  0  0  4           0  0  0
    0.0000   -0.0000    0.0000 C   0  0  0  0  0  4           0  0  0
    1.5277   -0.0000    0.0000 C   0  0  0  0  0  4           0  0  0
    2.1573    0.0000   -1.3916 C   0  0  0  0  0  4           0  0  0
    3.6847   -0.0000   -1.3916 C   0  0  0  0  0  4           0  0  0
    4.3143    0.0000   -2.7832 C   0  0  0  0  0  4           0  0  0
    5.8416   -0.0000   -2.7832 C   0  0  0  0  0  4           0  0  0
    6.4712    0.0000   -4.1748 C   0  0  0  0  0  4           0  0  0
    7.9986   -0.0000   -4.1748 C   0  0  0  0  0  4           0  0  0
    8.6282    0.0000   -5.5664 C   0  0  0  0  0  4           0  0  0
    8.2538    1.2052   -6.4268 C   0  0  0  0  0  4           0  0  0
    8.8834    1.2052   -7.8184 C   0  0  0  0  0  4           0  0  0
    8.4672    2.4312   -8.6157 C   0  0  0  0  0  4           0  0  0
  1  8  1  0     0  0
  1 20  1  0     0  0
  2 17  2  0     0  0
  3 18  2  0     0  0
  4 19  2  0     0  0
  5  6  1  0     0  0
  5  9  1  0     0  0
  6 10  2  0     0  0
  7 11  1  0     0  0
  7 17  1  0     0  0
  7 18  1  0     0  0
  8 13  2  0     0  0
  8 14  1  0     0  0
  9 12  2  0     0  0
  9 17  1  0     0  0
 10 12  1  0     0  0
 10 19  1  0     0  0
 11 15  2  0     0  0
 11 16  1  0     0  0
 12 18  1  0     0  0
 13 15  1  0     0  0
 14 16  2  0     0  0
 19 21  1  0     0  0
 21 22  1  0     0  0
 22 23  1  0     0  0
 23 24  1  0     0  0
 24 25  1  0     0  0
 25 26  1  0     0  0
 26 27  1  0     0  0
 27 28  1  0     0  0
 28 29  1  0     0  0
 29 30  1  0     0  0
 30 31  1  0     0  0
 31 32  1  0     0  0
 32 33  1  0     0  0
 33 34  1  0     0  0
 34 35  1  0     0  0
 35 36  1  0     0  0
 36 37  1  0     0  0
M  END
> <standard_type>
IC50

> <# Confs.>
25

> <canonical_smiles>
O=C1C2=C(C(C(CCCCCCCCCCCCCCCCC)=O)=NN2)C(N1C3=CC=C(OC)C=C3)=O

> <standard_relation>
=

> <predicted_activity_value>
6.494850021680094

> <actual_activity_value>
6.267606240177032

> <Compound>
8

> <publication_ID>
nan

> <standard_units>
nM

> hash
16153934751459735447

$$$$
8_
XXILIB    08252103493D 0   0.00000     0.00000

 37 39  0     1  0            999 V2000
  -16.3536   -0.9328    5.5069 O   0  0  0  0  0  2           0  0  0
  -10.5034   -2.2050    7.9421 O   0  0  0  0  0  2           0  0  0
  -10.1133    0.1532    3.8944 O   0  0  0  0  0  2           0  0  0
   -7.0620    0.5323    3.2205 O   0  0  0  0  0  2           0  0  0
   -7.4771   -1.6746    7.0813 N   0  0  0  0  0  3           0  0  0
   -6.5148   -1.1974    6.2557 N   0  0  0  0  0  3           0  0  0
  -10.7611   -1.0088    5.8857 N   0  0  1  0  0  3           0  0  0
  -14.9941   -0.8681    5.5516 C   0  0  0  0  0  4           0  0  0
   -8.7124   -1.4137    6.6157 C   0  0  0  0  0  4           0  0  0
   -7.1904   -0.6159    5.2384 C   0  0  0  0  0  4           0  0  0
  -12.1767   -0.9621    5.7755 C   0  0  0  0  0  4           0  0  0
   -8.5704   -0.7359    5.4454 C   0  0  0  0  0  4           0  0  0
  -14.3681   -1.9322    6.2035 C   0  0  0  0  0  4           0  0  0
  -14.2099    0.1521    5.0116 C   0  0  0  0  0  4           0  0  0
  -12.9748   -1.9822    6.3132 C   0  0  0  0  0  4           0  0  0
  -12.8147    0.1051    5.1246 C   0  0  0  0  0  4           0  0  0
  -10.0786   -1.6246    6.9561 C   0  0  0  0  0  4           0  0  0
   -9.8818   -0.4464    4.9313 C   0  0  0  0  0  4           0  0  0
   -6.4594   -0.0000    4.1518 C   0  0  0  0  0  4           0  0  0
  -17.0531    0.1234    4.8551 C   0  0  0  0  0  4           0  0  0
   -4.9437    0.0000    4.1750 C   0  0  0  0  0  4           0  0  0
   -4.3140   -0.0000    2.7832 C   0  0  0  0  0  4           0  0  0
   -2.7866    0.0000    2.7832 C   0  0  0  0  0  4           0  0  0
   -2.1570   -0.0000    1.3916 C   0  0  0  0  0  4           0  0  0
   -0.6296   -0.0000    1.3916 C   0  0  0  0  0  4           0  0  0
    0.0000   -0.0000    0.0000 C   0  0  0  0  0  4           0  0  0
    1.5277   -0.0000    0.0000 C   0  0  0  0  0  4           0  0  0
    2.1573    0.0000   -1.3916 C   0  0  0  0  0  4           0  0  0
    3.6847   -0.0000   -1.3916 C   0  0  0  0  0  4           0  0  0
    4.3143    0.0000   -2.7832 C   0  0  0  0  0  4           0  0  0
    5.8416   -0.0000   -2.7832 C   0  0  0  0  0  4           0  0  0
    6.4712    0.0000   -4.1748 C   0  0  0  0  0  4           0  0  0
    7.9986   -0.0000   -4.1748 C   0  0  0  0  0  4           0  0  0
    8.6282    0.0000   -5.5664 C   0  0  0  0  0  4           0  0  0
   10.1556   -0.0000   -5.5664 C   0  0  0  0  0  4           0  0  0
   10.7852    0.0000   -6.9579 C   0  0  0  0  0  4           0  0  0
   12.3038   -0.0000   -6.8799 C   0  0  0  0  0  4           0  0  0
  1  8  1  0     0  0
  1 20  1  0     0  0
  2 17  2  0     0  0
  3 18  2  0     0  0
  4 19  2  0     0  0
  5  6  1  0     0  0
  5  9  1  0     0  0
  6 10  2  0     0  0
  7 11  1  0     0  0
  7 17  1  0     0  0
  7 18  1  0     0  0
  8 13  2  0     0  0
  8 14  1  0     0  0
  9 12  2  0     0  0
  9 17  1  0     0  0
 10 12  1  0     0  0
 10 19  1  0     0  0
 11 15  2  0     0  0
 11 16  1  0     0  0
 12 18  1  0     0  0
 13 15  1  0     0  0
 14 16  2  0     0  0
 19 21  1  0     0  0
 21 22  1  0     0  0
 22 23  1  0     0  0
 23 24  1  0     0  0
 24 25  1  0     0  0
 25 26  1  0     0  0
 26 27  1  0     0  0
 27 28  1  0     0  0
 28 29  1  0     0  0
 29 30  1  0     0  0
 30 31  1  0     0  0
 31 32  1  0     0  0
 32 33  1  0     0  0
 33 34  1  0     0  0
 34 35  1  0     0  0
 35 36  1  0     0  0
 36 37  1  0     0  0
M  END
> <standard_type>
IC50

> <# Confs.>
25

> <canonical_smiles>
O=C1C2=C(C(C(CCCCCCCCCCCCCCCCC)=O)=NN2)C(N1C3=CC=C(OC)C=C3)=O

> <standard_relation>
=

> <predicted_activity_value>
6.494850021680094

> <actual_activity_value>
6.267606240177032

> <Compound>
8

> <publication_ID>
nan

> <standard_units>
nM

> hash
16153934751459735447

$$$$
8_
XXILIB    08252103493D 0   0.00000     0.00000

 37 39  0     1  0            999 V2000
    0.7023  -10.8789   13.4956 O   0  0  0  0  0  2           0  0  0
   -2.2403   -5.2583   12.2710 O   0  0  0  0  0  2           0  0  0
    0.2878   -6.6226    8.5502 O   0  0  0  0  0  2           0  0  0
   -0.0033   -4.4717    6.2705 O   0  0  0  0  0  2           0  0  0
   -2.4215   -3.2302    9.8144 N   0  0  0  0  0  3           0  0  0
   -2.1164   -2.8056    8.5646 N   0  0  0  0  0  3           0  0  0
   -0.8457   -6.3120   10.6368 N   0  0  1  0  0  3           0  0  0
    0.4099   -9.7742   12.7550 C   0  0  0  0  0  4           0  0  0
   -1.8190   -4.3967   10.1092 C   0  0  0  0  0  4           0  0  0
   -1.2906   -3.7556    8.0696 C   0  0  0  0  0  4           0  0  0
   -0.4272   -7.4704   11.3448 C   0  0  0  0  0  4           0  0  0
   -1.0934   -4.7655    9.0198 C   0  0  0  0  0  4           0  0  0
   -0.8351   -9.1970   13.0118 C   0  0  0  0  0  4           0  0  0
    1.2378   -9.1991   11.7899 C   0  0  0  0  0  4           0  0  0
   -1.2502   -8.0562   12.3176 C   0  0  0  0  0  4           0  0  0
    0.8212   -8.0591   11.0910 C   0  0  0  0  0  4           0  0  0
   -1.7062   -5.3325   11.1762 C   0  0  0  0  0  4           0  0  0
   -0.4413   -6.0128    9.3149 C   0  0  0  0  0  4           0  0  0
   -0.7555   -3.6146    6.7324 C   0  0  0  0  0  4           0  0  0
    1.9586  -11.5155   13.2812 C   0  0  0  0  0  4           0  0  0
   -1.1401   -2.4103    5.8959 C   0  0  0  0  0  4           0  0  0
   -0.5104   -2.4103    4.5040 C   0  0  0  0  0  4           0  0  0
   -0.8848   -1.2052    3.6436 C   0  0  0  0  0  4           0  0  0
   -0.2552   -1.2052    2.2520 C   0  0  0  0  0  4           0  0  0
   -0.6296   -0.0000    1.3916 C   0  0  0  0  0  4           0  0  0
    0.0000    0.0000    0.0000 C   0  0  0  0  0  4           0  0  0
    1.5277   -0.0000    0.0000 C   0  0  0  0  0  4           0  0  0
    2.1573    0.0000   -1.3916 C   0  0  0  0  0  4           0  0  0
    3.6847   -0.0000   -1.3916 C   0  0  0  0  0  4           0  0  0
    4.3143    0.0000   -2.7832 C   0  0  0  0  0  4           0  0  0
    5.8416   -0.0000   -2.7832 C   0  0  0  0  0  4           0  0  0
    6.4712    0.0000   -4.1748 C   0  0  0  0  0  4           0  0  0
    7.9986   -0.0000   -4.1748 C   0  0  0  0  0  4           0  0  0
    8.6282    0.0000   -5.5664 C   0  0  0  0  0  4           0  0  0
   10.1556   -0.0000   -5.5664 C   0  0  0  0  0  4           0  0  0
   10.7852    0.0000   -6.9579 C   0  0  0  0  0  4           0  0  0
   12.3038   -0.0000   -6.8799 C   0  0  0  0  0  4           0  0  0
  1  8  1  0     0  0
  1 20  1  0     0  0
  2 17  2  0     0  0
  3 18  2  0     0  0
  4 19  2  0     0  0
  5  6  1  0     0  0
  5  9  1  0     0  0
  6 10  2  0     0  0
  7 11  1  0     0  0
  7 17  1  0     0  0
  7 18  1  0     0  0
  8 13  2  0     0  0
  8 14  1  0     0  0
  9 12  2  0     0  0
  9 17  1  0     0  0
 10 12  1  0     0  0
 10 19  1  0     0  0
 11 15  2  0     0  0
 11 16  1  0     0  0
 12 18  1  0     0  0
 13 15  1  0     0  0
 14 16  2  0     0  0
 19 21  1  0     0  0
 21 22  1  0     0  0
 22 23  1  0     0  0
 23 24  1  0     0  0
 24 25  1  0     0  0
 25 26  1  0     0  0
 26 27  1  0     0  0
 27 28  1  0     0  0
 28 29  1  0     0  0
 29 30  1  0     0  0
 30 31  1  0     0  0
 31 32  1  0     0  0
 32 33  1  0     0  0
 33 34  1  0     0  0
 34 35  1  0     0  0
 35 36  1  0     0  0
 36 37  1  0     0  0
M  END
> <standard_type>
IC50

> <# Confs.>
25

> <canonical_smiles>
O=C1C2=C(C(C(CCCCCCCCCCCCCCCCC)=O)=NN2)C(N1C3=CC=C(OC)C=C3)=O

> <standard_relation>
=

> <predicted_activity_value>
6.494850021680094

> <actual_activity_value>
6.267606240177032

> <Compound>
8

> <publication_ID>
nan

> <standard_units>
nM

> hash
16153934751459735447

$$$$
8_
XXILIB    08252103493D 0   0.00000     0.00000

 37 39  0     1  0            999 V2000
  -16.3584    0.0676    5.7768 O   0  0  0  0  0  2           0  0  0
  -10.5124    0.0163    8.5284 O   0  0  0  0  0  2           0  0  0
  -10.1126    0.0320    3.8448 O   0  0  0  0  0  2           0  0  0
   -7.0599   -0.0000    3.0779 O   0  0  0  0  0  2           0  0  0
   -7.4839    0.0222    7.5240 N   0  0  0  0  0  3           0  0  0
   -6.5196    0.0153    6.5724 N   0  0  0  0  0  3           0  0  0
  -10.7652    0.0262    6.1490 N   0  0  1  0  0  3           0  0  0
  -14.9979    0.0104    5.7840 C   0  0  0  0  0  4           0  0  0
   -8.7181    0.0248    6.9878 C   0  0  0  0  0  4           0  0  0
   -7.1928    0.0155    5.3993 C   0  0  0  0  0  4           0  0  0
  -12.1806    0.0224    6.0272 C   0  0  0  0  0  4           0  0  0
   -8.5733    0.0256    5.6357 C   0  0  0  0  0  4           0  0  0
  -14.3820    0.6125    6.8828 C   0  0  0  0  0  4           0  0  0
  -14.2034   -0.5858    4.8038 C   0  0  0  0  0  4           0  0  0
  -12.9890    0.6174    7.0066 C   0  0  0  0  0  4           0  0  0
  -12.8081   -0.5777    4.9247 C   0  0  0  0  0  4           0  0  0
  -10.0852    0.0228    7.3853 C   0  0  0  0  0  4           0  0  0
   -9.8835    0.0294    5.0430 C   0  0  0  0  0  4           0  0  0
   -6.4594   -0.0000    4.1518 C   0  0  0  0  0  4           0  0  0
  -17.0479   -0.5288    4.6820 C   0  0  0  0  0  4           0  0  0
   -4.9437    0.0000    4.1750 C   0  0  0  0  0  4           0  0  0
   -4.3140   -0.0000    2.7832 C   0  0  0  0  0  4           0  0  0
   -2.7866    0.0000    2.7832 C   0  0  0  0  0  4           0  0  0
   -2.1570   -0.0000    1.3916 C   0  0  0  0  0  4           0  0  0
   -0.6296   -0.0000    1.3916 C   0  0  0  0  0  4           0  0  0
    0.0000   -0.0000    0.0000 C   0  0  0  0  0  4           0  0  0
    1.5277   -0.0000   -0.0000 C   0  0  0  0  0  4           0  0  0
    2.1573    1.2052    0.6958 C   0  0  0  0  0  4           0  0  0
    3.6847    1.2052    0.6958 C   0  0  0  0  0  4           0  0  0
    4.3143    2.4103    1.3916 C   0  0  0  0  0  4           0  0  0
    5.8416    2.4103    1.3916 C   0  0  0  0  0  4           0  0  0
    6.4712    3.6155    2.0874 C   0  0  0  0  0  4           0  0  0
    7.9986    3.6155    2.0874 C   0  0  0  0  0  4           0  0  0
    8.6282    4.8206    2.7832 C   0  0  0  0  0  4           0  0  0
   10.1556    4.8206    2.7832 C   0  0  0  0  0  4           0  0  0
   10.7852    6.0258    3.4790 C   0  0  0  0  0  4           0  0  0
   12.3038    5.9582    3.4400 C   0  0  0  0  0  4           0  0  0
  1  8  1  0     0  0
  1 20  1  0     0  0
  2 17  2  0     0  0
  3 18  2  0     0  0
  4 19  2  0     0  0
  5  6  1  0     0  0
  5  9  1  0     0  0
  6 10  2  0     0  0
  7 11  1  0     0  0
  7 17  1  0     0  0
  7 18  1  0     0  0
  8 13  2  0     0  0
  8 14  1  0     0  0
  9 12  2  0     0  0
  9 17  1  0     0  0
 10 12  1  0     0  0
 10 19  1  0     0  0
 11 15  2  0     0  0
 11 16  1  0     0  0
 12 18  1  0     0  0
 13 15  1  0     0  0
 14 16  2  0     0  0
 19 21  1  0     0  0
 21 22  1  0     0  0
 22 23  1  0     0  0
 23 24  1  0     0  0
 24 25  1  0     0  0
 25 26  1  0     0  0
 26 27  1  0     0  0
 27 28  1  0     0  0
 28 29  1  0     0  0
 29 30  1  0     0  0
 30 31  1  0     0  0
 31 32  1  0     0  0
 32 33  1  0     0  0
 33 34  1  0     0  0
 34 35  1  0     0  0
 35 36  1  0     0  0
 36 37  1  0     0  0
M  END
> <standard_type>
IC50

> <# Confs.>
25

> <canonical_smiles>
O=C1C2=C(C(C(CCCCCCCCCCCCCCCCC)=O)=NN2)C(N1C3=CC=C(OC)C=C3)=O

> <standard_relation>
=

> <predicted_activity_value>
6.494850021680094

> <actual_activity_value>
6.267606240177032

> <Compound>
8

> <publication_ID>
nan

> <standard_units>
nM

> hash
16153934751459735447

$$$$
8_
XXILIB    08252103493D 0   0.00000     0.00000

 37 39  0     1  0            999 V2000
  -16.3584    0.0676    5.7768 O   0  0  0  0  0  2           0  0  0
  -10.5124    0.0163    8.5284 O   0  0  0  0  0  2           0  0  0
  -10.1126    0.0320    3.8448 O   0  0  0  0  0  2           0  0  0
   -7.0599   -0.0000    3.0779 O   0  0  0  0  0  2           0  0  0
   -7.4839    0.0222    7.5240 N   0  0  0  0  0  3           0  0  0
   -6.5196    0.0153    6.5724 N   0  0  0  0  0  3           0  0  0
  -10.7652    0.0262    6.1490 N   0  0  1  0  0  3           0  0  0
  -14.9979    0.0104    5.7840 C   0  0  0  0  0  4           0  0  0
   -8.7181    0.0248    6.9878 C   0  0  0  0  0  4           0  0  0
   -7.1928    0.0155    5.3993 C   0  0  0  0  0  4           0  0  0
  -12.1806    0.0224    6.0272 C   0  0  0  0  0  4           0  0  0
   -8.5733    0.0256    5.6357 C   0  0  0  0  0  4           0  0  0
  -14.3820    0.6125    6.8828 C   0  0  0  0  0  4           0  0  0
  -14.2034   -0.5858    4.8038 C   0  0  0  0  0  4           0  0  0
  -12.9890    0.6174    7.0066 C   0  0  0  0  0  4           0  0  0
  -12.8081   -0.5777    4.9247 C   0  0  0  0  0  4           0  0  0
  -10.0852    0.0228    7.3853 C   0  0  0  0  0  4           0  0  0
   -9.8835    0.0294    5.0430 C   0  0  0  0  0  4           0  0  0
   -6.4594   -0.0000    4.1518 C   0  0  0  0  0  4           0  0  0
  -17.0479   -0.5288    4.6820 C   0  0  0  0  0  4           0  0  0
   -4.9437    0.0000    4.1750 C   0  0  0  0  0  4           0  0  0
   -4.3140   -0.0000    2.7832 C   0  0  0  0  0  4           0  0  0
   -2.7866    0.0000    2.7832 C   0  0  0  0  0  4           0  0  0
   -2.1570   -0.0000    1.3916 C   0  0  0  0  0  4           0  0  0
   -0.6296   -0.0000    1.3916 C   0  0  0  0  0  4           0  0  0
    0.0000   -0.0000    0.0000 C   0  0  0  0  0  4           0  0  0
    1.5277   -0.0000    0.0000 C   0  0  0  0  0  4           0  0  0
    2.1573    0.0000   -1.3916 C   0  0  0  0  0  4           0  0  0
    1.7829   -1.2052   -2.2520 C   0  0  0  0  0  4           0  0  0
    2.4125   -1.2052   -3.6436 C   0  0  0  0  0  4           0  0  0
    2.0380   -2.4103   -4.5040 C   0  0  0  0  0  4           0  0  0
    2.6676   -2.4103   -5.8956 C   0  0  0  0  0  4           0  0  0
    2.2932   -3.6155   -6.7561 C   0  0  0  0  0  4           0  0  0
    2.9228   -3.6155   -8.1477 C   0  0  0  0  0  4           0  0  0
    2.5484   -4.8206   -9.0081 C   0  0  0  0  0  4           0  0  0
    3.1780   -4.8206  -10.3997 C   0  0  0  0  0  4           0  0  0
    2.7618   -6.0467  -11.1970 C   0  0  0  0  0  4           0  0  0
  1  8  1  0     0  0
  1 20  1  0     0  0
  2 17  2  0     0  0
  3 18  2  0     0  0
  4 19  2  0     0  0
  5  6  1  0     0  0
  5  9  1  0     0  0
  6 10  2  0     0  0
  7 11  1  0     0  0
  7 17  1  0     0  0
  7 18  1  0     0  0
  8 13  2  0     0  0
  8 14  1  0     0  0
  9 12  2  0     0  0
  9 17  1  0     0  0
 10 12  1  0     0  0
 10 19  1  0     0  0
 11 15  2  0     0  0
 11 16  1  0     0  0
 12 18  1  0     0  0
 13 15  1  0     0  0
 14 16  2  0     0  0
 19 21  1  0     0  0
 21 22  1  0     0  0
 22 23  1  0     0  0
 23 24  1  0     0  0
 24 25  1  0     0  0
 25 26  1  0     0  0
 26 27  1  0     0  0
 27 28  1  0     0  0
 28 29  1  0     0  0
 29 30  1  0     0  0
 30 31  1  0     0  0
 31 32  1  0     0  0
 32 33  1  0     0  0
 33 34  1  0     0  0
 34 35  1  0     0  0
 35 36  1  0     0  0
 36 37  1  0     0  0
M  END
> <standard_type>
IC50

> <# Confs.>
25

> <canonical_smiles>
O=C1C2=C(C(C(CCCCCCCCCCCCCCCCC)=O)=NN2)C(N1C3=CC=C(OC)C=C3)=O

> <standard_relation>
=

> <predicted_activity_value>
6.494850021680094

> <actual_activity_value>
6.267606240177032

> <Compound>
8

> <publication_ID>
nan

> <standard_units>
nM

> hash
16153934751459735447

$$$$
8_
XXILIB    08252103493D 0   0.00000     0.00000

 37 39  0     1  0            999 V2000
  -16.3584    0.0676    5.7768 O   0  0  0  0  0  2           0  0  0
  -10.5124    0.0163    8.5284 O   0  0  0  0  0  2           0  0  0
  -10.1126    0.0320    3.8448 O   0  0  0  0  0  2           0  0  0
   -7.0599   -0.0000    3.0779 O   0  0  0  0  0  2           0  0  0
   -7.4839    0.0222    7.5240 N   0  0  0  0  0  3           0  0  0
   -6.5196    0.0153    6.5724 N   0  0  0  0  0  3           0  0  0
  -10.7652    0.0262    6.1490 N   0  0  1  0  0  3           0  0  0
  -14.9979    0.0104    5.7840 C   0  0  0  0  0  4           0  0  0
   -8.7181    0.0248    6.9878 C   0  0  0  0  0  4           0  0  0
   -7.1928    0.0155    5.3993 C   0  0  0  0  0  4           0  0  0
  -12.1806    0.0224    6.0272 C   0  0  0  0  0  4           0  0  0
   -8.5733    0.0256    5.6357 C   0  0  0  0  0  4           0  0  0
  -14.3820    0.6125    6.8828 C   0  0  0  0  0  4           0  0  0
  -14.2034   -0.5858    4.8038 C   0  0  0  0  0  4           0  0  0
  -12.9890    0.6174    7.0066 C   0  0  0  0  0  4           0  0  0
  -12.8081   -0.5777    4.9247 C   0  0  0  0  0  4           0  0  0
  -10.0852    0.0228    7.3853 C   0  0  0  0  0  4           0  0  0
   -9.8835    0.0294    5.0430 C   0  0  0  0  0  4           0  0  0
   -6.4594   -0.0000    4.1518 C   0  0  0  0  0  4           0  0  0
  -17.0479   -0.5288    4.6820 C   0  0  0  0  0  4           0  0  0
   -4.9437    0.0000    4.1750 C   0  0  0  0  0  4           0  0  0
   -4.3140   -0.0000    2.7832 C   0  0  0  0  0  4           0  0  0
   -2.7866    0.0000    2.7832 C   0  0  0  0  0  4           0  0  0
   -2.1570   -0.0000    1.3916 C   0  0  0  0  0  4           0  0  0
   -0.6296   -0.0000    1.3916 C   0  0  0  0  0  4           0  0  0
    0.0000   -0.0000    0.0000 C   0  0  0  0  0  4           0  0  0
    1.5277    0.0000    0.0000 C   0  0  0  0  0  4           0  0  0
    2.1573    0.0000   -1.3916 C   0  0  0  0  0  4           0  0  0
    3.6847   -0.0000   -1.3916 C   0  0  0  0  0  4           0  0  0
    4.3143   -0.0000   -2.7832 C   0  0  0  0  0  4           0  0  0
    3.9398   -1.2052   -3.6436 C   0  0  0  0  0  4           0  0  0
    4.5694   -1.2052   -5.0352 C   0  0  0  0  0  4           0  0  0
    4.1950   -2.4103   -5.8956 C   0  0  0  0  0  4           0  0  0
    4.8246   -2.4103   -7.2872 C   0  0  0  0  0  4           0  0  0
    4.4502   -3.6155   -8.1477 C   0  0  0  0  0  4           0  0  0
    5.0798   -3.6155   -9.5392 C   0  0  0  0  0  4           0  0  0
    4.6636   -4.8415  -10.3366 C   0  0  0  0  0  4           0  0  0
  1  8  1  0     0  0
  1 20  1  0     0  0
  2 17  2  0     0  0
  3 18  2  0     0  0
  4 19  2  0     0  0
  5  6  1  0     0  0
  5  9  1  0     0  0
  6 10  2  0     0  0
  7 11  1  0     0  0
  7 17  1  0     0  0
  7 18  1  0     0  0
  8 13  2  0     0  0
  8 14  1  0     0  0
  9 12  2  0     0  0
  9 17  1  0     0  0
 10 12  1  0     0  0
 10 19  1  0     0  0
 11 15  2  0     0  0
 11 16  1  0     0  0
 12 18  1  0     0  0
 13 15  1  0     0  0
 14 16  2  0     0  0
 19 21  1  0     0  0
 21 22  1  0     0  0
 22 23  1  0     0  0
 23 24  1  0     0  0
 24 25  1  0     0  0
 25 26  1  0     0  0
 26 27  1  0     0  0
 27 28  1  0     0  0
 28 29  1  0     0  0
 29 30  1  0     0  0
 30 31  1  0     0  0
 31 32  1  0     0  0
 32 33  1  0     0  0
 33 34  1  0     0  0
 34 35  1  0     0  0
 35 36  1  0     0  0
 36 37  1  0     0  0
M  END
> <standard_type>
IC50

> <# Confs.>
25

> <canonical_smiles>
O=C1C2=C(C(C(CCCCCCCCCCCCCCCCC)=O)=NN2)C(N1C3=CC=C(OC)C=C3)=O

> <standard_relation>
=

> <predicted_activity_value>
6.494850021680094

> <actual_activity_value>
6.267606240177032

> <Compound>
8

> <publication_ID>
nan

> <standard_units>
nM

> hash
16153934751459735447

$$$$
8_
XXILIB    08252103493D 0   0.00000     0.00000

 37 39  0     1  0            999 V2000
  -16.3584    0.0676    5.7768 O   0  0  0  0  0  2           0  0  0
  -10.5124    0.0163    8.5284 O   0  0  0  0  0  2           0  0  0
  -10.1126    0.0320    3.8448 O   0  0  0  0  0  2           0  0  0
   -7.0599   -0.0000    3.0779 O   0  0  0  0  0  2           0  0  0
   -7.4839    0.0222    7.5240 N   0  0  0  0  0  3           0  0  0
   -6.5196    0.0153    6.5724 N   0  0  0  0  0  3           0  0  0
  -10.7652    0.0262    6.1490 N   0  0  1  0  0  3           0  0  0
  -14.9979    0.0104    5.7840 C   0  0  0  0  0  4           0  0  0
   -8.7181    0.0248    6.9878 C   0  0  0  0  0  4           0  0  0
   -7.1928    0.0155    5.3993 C   0  0  0  0  0  4           0  0  0
  -12.1806    0.0224    6.0272 C   0  0  0  0  0  4           0  0  0
   -8.5733    0.0256    5.6357 C   0  0  0  0  0  4           0  0  0
  -14.3820    0.6125    6.8828 C   0  0  0  0  0  4           0  0  0
  -14.2034   -0.5858    4.8038 C   0  0  0  0  0  4           0  0  0
  -12.9890    0.6174    7.0066 C   0  0  0  0  0  4           0  0  0
  -12.8081   -0.5777    4.9247 C   0  0  0  0  0  4           0  0  0
  -10.0852    0.0228    7.3853 C   0  0  0  0  0  4           0  0  0
   -9.8835    0.0294    5.0430 C   0  0  0  0  0  4           0  0  0
   -6.4594   -0.0000    4.1518 C   0  0  0  0  0  4           0  0  0
  -17.0479   -0.5288    4.6820 C   0  0  0  0  0  4           0  0  0
   -4.9437    0.0000    4.1750 C   0  0  0  0  0  4           0  0  0
   -4.3140   -0.0000    2.7832 C   0  0  0  0  0  4           0  0  0
   -2.7866    0.0000    2.7832 C   0  0  0  0  0  4           0  0  0
   -2.1570   -0.0000    1.3916 C   0  0  0  0  0  4           0  0  0
   -0.6296   -0.0000    1.3916 C   0  0  0  0  0  4           0  0  0
    0.0000   -0.0000    0.0000 C   0  0  0  0  0  4           0  0  0
    1.5277    0.0000    0.0000 C   0  0  0  0  0  4           0  0  0
    2.1573    0.0000   -1.3916 C   0  0  0  0  0  4           0  0  0
    3.6847   -0.0000   -1.3916 C   0  0  0  0  0  4           0  0  0
    4.3143    1.2052   -0.6958 C   0  0  0  0  0  4           0  0  0
    5.8416    1.2052   -0.6958 C   0  0  0  0  0  4           0  0  0
    6.4712    2.4103    0.0000 C   0  0  0  0  0  4           0  0  0
    7.9986    2.4103    0.0000 C   0  0  0  0  0  4           0  0  0
    8.6282    3.6155    0.6958 C   0  0  0  0  0  4           0  0  0
   10.1556    3.6155    0.6958 C   0  0  0  0  0  4           0  0  0
   10.7852    4.8206    1.3916 C   0  0  0  0  0  4           0  0  0
   12.3038    4.7530    1.3526 C   0  0  0  0  0  4           0  0  0
  1  8  1  0     0  0
  1 20  1  0     0  0
  2 17  2  0     0  0
  3 18  2  0     0  0
  4 19  2  0     0  0
  5  6  1  0     0  0
  5  9  1  0     0  0
  6 10  2  0     0  0
  7 11  1  0     0  0
  7 17  1  0     0  0
  7 18  1  0     0  0
  8 13  2  0     0  0
  8 14  1  0     0  0
  9 12  2  0     0  0
  9 17  1  0     0  0
 10 12  1  0     0  0
 10 19  1  0     0  0
 11 15  2  0     0  0
 11 16  1  0     0  0
 12 18  1  0     0  0
 13 15  1  0     0  0
 14 16  2  0     0  0
 19 21  1  0     0  0
 21 22  1  0     0  0
 22 23  1  0     0  0
 23 24  1  0     0  0
 24 25  1  0     0  0
 25 26  1  0     0  0
 26 27  1  0     0  0
 27 28  1  0     0  0
 28 29  1  0     0  0
 29 30  1  0     0  0
 30 31  1  0     0  0
 31 32  1  0     0  0
 32 33  1  0     0  0
 33 34  1  0     0  0
 34 35  1  0     0  0
 35 36  1  0     0  0
 36 37  1  0     0  0
M  END
> <standard_type>
IC50

> <# Confs.>
25

> <canonical_smiles>
O=C1C2=C(C(C(CCCCCCCCCCCCCCCCC)=O)=NN2)C(N1C3=CC=C(OC)C=C3)=O

> <standard_relation>
=

> <predicted_activity_value>
6.494850021680094

> <actual_activity_value>
6.267606240177032

> <Compound>
8

> <publication_ID>
nan

> <standard_units>
nM

> hash
16153934751459735447

$$$$
8_
XXILIB    08252103493D 0   0.00000     0.00000

 37 39  0     1  0            999 V2000
  -16.3584    0.0676    5.7768 O   0  0  0  0  0  2           0  0  0
  -10.5124    0.0163    8.5284 O   0  0  0  0  0  2           0  0  0
  -10.1126    0.0320    3.8448 O   0  0  0  0  0  2           0  0  0
   -7.0599   -0.0000    3.0779 O   0  0  0  0  0  2           0  0  0
   -7.4839    0.0222    7.5240 N   0  0  0  0  0  3           0  0  0
   -6.5196    0.0153    6.5724 N   0  0  0  0  0  3           0  0  0
  -10.7652    0.0262    6.1490 N   0  0  1  0  0  3           0  0  0
  -14.9979    0.0104    5.7840 C   0  0  0  0  0  4           0  0  0
   -8.7181    0.0248    6.9878 C   0  0  0  0  0  4           0  0  0
   -7.1928    0.0155    5.3993 C   0  0  0  0  0  4           0  0  0
  -12.1806    0.0224    6.0272 C   0  0  0  0  0  4           0  0  0
   -8.5733    0.0256    5.6357 C   0  0  0  0  0  4           0  0  0
  -14.3820    0.6125    6.8828 C   0  0  0  0  0  4           0  0  0
  -14.2034   -0.5858    4.8038 C   0  0  0  0  0  4           0  0  0
  -12.9890    0.6174    7.0066 C   0  0  0  0  0  4           0  0  0
  -12.8081   -0.5777    4.9247 C   0  0  0  0  0  4           0  0  0
  -10.0852    0.0228    7.3853 C   0  0  0  0  0  4           0  0  0
   -9.8835    0.0294    5.0430 C   0  0  0  0  0  4           0  0  0
   -6.4594   -0.0000    4.1518 C   0  0  0  0  0  4           0  0  0
  -17.0479   -0.5288    4.6820 C   0  0  0  0  0  4           0  0  0
   -4.9437    0.0000    4.1750 C   0  0  0  0  0  4           0  0  0
   -4.3140   -0.0000    2.7832 C   0  0  0  0  0  4           0  0  0
   -2.7866    0.0000    2.7832 C   0  0  0  0  0  4           0  0  0
   -2.1570   -0.0000    1.3916 C   0  0  0  0  0  4           0  0  0
   -0.6296   -0.0000    1.3916 C   0  0  0  0  0  4           0  0  0
    0.0000   -0.0000    0.0000 C   0  0  0  0  0  4           0  0  0
    1.5277   -0.0000    0.0000 C   0  0  0  0  0  4           0  0  0
    2.1573    0.0000   -1.3916 C   0  0  0  0  0  4           0  0  0
    3.6847   -0.0000   -1.3916 C   0  0  0  0  0  4           0  0  0
    4.3143    0.0000   -2.7832 C   0  0  0  0  0  4           0  0  0
    5.8416   -0.0000   -2.7832 C   0  0  0  0  0  4           0  0  0
    6.4712    1.2052   -2.0874 C   0  0  0  0  0  4           0  0  0
    7.9986    1.2052   -2.0874 C   0  0  0  0  0  4           0  0  0
    8.6282    2.4103   -1.3916 C   0  0  0  0  0  4           0  0  0
   10.1556    2.4103   -1.3916 C   0  0  0  0  0  4           0  0  0
   10.7852    3.6155   -0.6958 C   0  0  0  0  0  4           0  0  0
   12.3038    3.5479   -0.7348 C   0  0  0  0  0  4           0  0  0
  1  8  1  0     0  0
  1 20  1  0     0  0
  2 17  2  0     0  0
  3 18  2  0     0  0
  4 19  2  0     0  0
  5  6  1  0     0  0
  5  9  1  0     0  0
  6 10  2  0     0  0
  7 11  1  0     0  0
  7 17  1  0     0  0
  7 18  1  0     0  0
  8 13  2  0     0  0
  8 14  1  0     0  0
  9 12  2  0     0  0
  9 17  1  0     0  0
 10 12  1  0     0  0
 10 19  1  0     0  0
 11 15  2  0     0  0
 11 16  1  0     0  0
 12 18  1  0     0  0
 13 15  1  0     0  0
 14 16  2  0     0  0
 19 21  1  0     0  0
 21 22  1  0     0  0
 22 23  1  0     0  0
 23 24  1  0     0  0
 24 25  1  0     0  0
 25 26  1  0     0  0
 26 27  1  0     0  0
 27 28  1  0     0  0
 28 29  1  0     0  0
 29 30  1  0     0  0
 30 31  1  0     0  0
 31 32  1  0     0  0
 32 33  1  0     0  0
 33 34  1  0     0  0
 34 35  1  0     0  0
 35 36  1  0     0  0
 36 37  1  0     0  0
M  END
> <standard_type>
IC50

> <# Confs.>
25

> <canonical_smiles>
O=C1C2=C(C(C(CCCCCCCCCCCCCCCCC)=O)=NN2)C(N1C3=CC=C(OC)C=C3)=O

> <standard_relation>
=

> <predicted_activity_value>
6.494850021680094

> <actual_activity_value>
6.267606240177032

> <Compound>
8

> <publication_ID>
nan

> <standard_units>
nM

> hash
16153934751459735447

$$$$
8_
XXILIB    08252103493D 0   0.00000     0.00000

 37 39  0     1  0            999 V2000
  -16.3584    0.0676    5.7768 O   0  0  0  0  0  2           0  0  0
  -10.5124    0.0163    8.5284 O   0  0  0  0  0  2           0  0  0
  -10.1126    0.0320    3.8448 O   0  0  0  0  0  2           0  0  0
   -7.0599   -0.0000    3.0779 O   0  0  0  0  0  2           0  0  0
   -7.4839    0.0222    7.5240 N   0  0  0  0  0  3           0  0  0
   -6.5196    0.0153    6.5724 N   0  0  0  0  0  3           0  0  0
  -10.7652    0.0262    6.1490 N   0  0  1  0  0  3           0  0  0
  -14.9979    0.0104    5.7840 C   0  0  0  0  0  4           0  0  0
   -8.7181    0.0248    6.9878 C   0  0  0  0  0  4           0  0  0
   -7.1928    0.0155    5.3993 C   0  0  0  0  0  4           0  0  0
  -12.1806    0.0224    6.0272 C   0  0  0  0  0  4           0  0  0
   -8.5733    0.0256    5.6357 C   0  0  0  0  0  4           0  0  0
  -14.3820    0.6125    6.8828 C   0  0  0  0  0  4           0  0  0
  -14.2034   -0.5858    4.8038 C   0  0  0  0  0  4           0  0  0
  -12.9890    0.6174    7.0066 C   0  0  0  0  0  4           0  0  0
  -12.8081   -0.5777    4.9247 C   0  0  0  0  0  4           0  0  0
  -10.0852    0.0228    7.3853 C   0  0  0  0  0  4           0  0  0
   -9.8835    0.0294    5.0430 C   0  0  0  0  0  4           0  0  0
   -6.4594   -0.0000    4.1518 C   0  0  0  0  0  4           0  0  0
  -17.0479   -0.5288    4.6820 C   0  0  0  0  0  4           0  0  0
   -4.9437    0.0000    4.1750 C   0  0  0  0  0  4           0  0  0
   -4.3140   -0.0000    2.7832 C   0  0  0  0  0  4           0  0  0
   -2.7866    0.0000    2.7832 C   0  0  0  0  0  4           0  0  0
   -2.1570   -0.0000    1.3916 C   0  0  0  0  0  4           0  0  0
   -0.6296   -0.0000    1.3916 C   0  0  0  0  0  4           0  0  0
    0.0000   -0.0000    0.0000 C   0  0  0  0  0  4           0  0  0
    1.5277   -0.0000    0.0000 C   0  0  0  0  0  4           0  0  0
    2.1573    0.0000   -1.3916 C   0  0  0  0  0  4           0  0  0
    3.6847   -0.0000   -1.3916 C   0  0  0  0  0  4           0  0  0
    4.3143   -0.0000   -2.7832 C   0  0  0  0  0  4           0  0  0
    5.8416   -0.0000   -2.7832 C   0  0  0  0  0  4           0  0  0
    6.4712   -0.0000   -4.1748 C   0  0  0  0  0  4           0  0  0
    6.0968   -1.2052   -5.0352 C   0  0  0  0  0  4           0  0  0
    6.7264   -1.2052   -6.4268 C   0  0  0  0  0  4           0  0  0
    6.3520   -2.4103   -7.2872 C   0  0  0  0  0  4           0  0  0
    6.9816   -2.4103   -8.6788 C   0  0  0  0  0  4           0  0  0
    6.5654   -3.6364   -9.4761 C   0  0  0  0  0  4           0  0  0
  1  8  1  0     0  0
  1 20  1  0     0  0
  2 17  2  0     0  0
  3 18  2  0     0  0
  4 19  2  0     0  0
  5  6  1  0     0  0
  5  9  1  0     0  0
  6 10  2  0     0  0
  7 11  1  0     0  0
  7 17  1  0     0  0
  7 18  1  0     0  0
  8 13  2  0     0  0
  8 14  1  0     0  0
  9 12  2  0     0  0
  9 17  1  0     0  0
 10 12  1  0     0  0
 10 19  1  0     0  0
 11 15  2  0     0  0
 11 16  1  0     0  0
 12 18  1  0     0  0
 13 15  1  0     0  0
 14 16  2  0     0  0
 19 21  1  0     0  0
 21 22  1  0     0  0
 22 23  1  0     0  0
 23 24  1  0     0  0
 24 25  1  0     0  0
 25 26  1  0     0  0
 26 27  1  0     0  0
 27 28  1  0     0  0
 28 29  1  0     0  0
 29 30  1  0     0  0
 30 31  1  0     0  0
 31 32  1  0     0  0
 32 33  1  0     0  0
 33 34  1  0     0  0
 34 35  1  0     0  0
 35 36  1  0     0  0
 36 37  1  0     0  0
M  END
> <standard_type>
IC50

> <# Confs.>
25

> <canonical_smiles>
O=C1C2=C(C(C(CCCCCCCCCCCCCCCCC)=O)=NN2)C(N1C3=CC=C(OC)C=C3)=O

> <standard_relation>
=

> <predicted_activity_value>
6.494850021680094

> <actual_activity_value>
6.267606240177032

> <Compound>
8

> <publication_ID>
nan

> <standard_units>
nM

> hash
16153934751459735447

$$$$
7_
XXILIB    08252103493D 0   0.00000     0.00000

 36 38  0     1  0            999 V2000
  -16.1934   -0.0987    5.7351 F   0  0  0  0  0  1           0  0  0
  -10.3896   -0.0716    8.5854 O   0  0  0  0  0  2           0  0  0
  -10.0036   -0.0248    3.9011 O   0  0  0  0  0  2           0  0  0
   -6.9384   -0.0000    3.1127 O   0  0  0  0  0  2           0  0  0
   -7.3647   -0.0286    7.5720 N   0  0  0  0  0  3           0  0  0
   -6.4029   -0.0124    6.6183 N   0  0  0  0  0  3           0  0  0
  -10.6496   -0.0546    6.2069 N   0  0  2  0  0  3           0  0  0
  -14.8582   -0.0896    5.8499 C   0  0  0  0  0  4           0  0  0
   -8.6001   -0.0385    7.0394 C   0  0  0  0  0  4           0  0  0
   -7.0792   -0.0127    5.4470 C   0  0  0  0  0  4           0  0  0
  -12.0660   -0.0694    6.0891 C   0  0  0  0  0  4           0  0  0
   -8.4589   -0.0272    5.6868 C   0  0  0  0  0  4           0  0  0
  -14.2690    0.5097    6.9561 C   0  0  0  0  0  4           0  0  0
  -14.0809   -0.6802    4.8617 C   0  0  0  0  0  4           0  0  0
  -12.8773    0.5179    7.0765 C   0  0  0  0  0  4           0  0  0
  -12.6890   -0.6700    4.9804 C   0  0  0  0  0  4           0  0  0
   -9.9659   -0.0567    7.4411 C   0  0  0  0  0  4           0  0  0
   -9.7711   -0.0354    5.0986 C   0  0  0  0  0  4           0  0  0
   -6.3442   -0.0000    4.1907 C   0  0  0  0  0  4           0  0  0
   -4.8306    0.0000    4.2191 C   0  0  0  0  0  4           0  0  0
   -4.2380   -0.0000    2.8129 C   0  0  0  0  0  4           0  0  0
   -2.7117    0.0000    2.8129 C   0  0  0  0  0  4           0  0  0
   -2.1190   -0.0000    1.4064 C   0  0  0  0  0  4           0  0  0
   -0.5927    0.0000    1.4064 C   0  0  0  0  0  4           0  0  0
    0.0000   -0.0000    0.0000 C   0  0  0  0  0  4           0  0  0
    1.5260    0.0000    0.0000 C   0  0  0  0  0  4           0  0  0
    2.1188    0.0000   -1.4064 C   0  0  0  0  0  4           0  0  0
    3.6450    0.0000   -1.4064 C   0  0  0  0  0  4           0  0  0
    4.2378    0.0000   -2.8129 C   0  0  0  0  0  4           0  0  0
    5.7640    0.0000   -2.8129 C   0  0  0  0  0  4           0  0  0
    6.3567    0.0000   -4.2193 C   0  0  0  0  0  4           0  0  0
    7.8830    0.0000   -4.2193 C   0  0  0  0  0  4           0  0  0
    8.4757    0.0000   -5.6258 C   0  0  0  0  0  4           0  0  0
   10.0019    0.0000   -5.6258 C   0  0  0  0  0  4           0  0  0
   10.5947    0.0000   -7.0322 C   0  0  0  0  0  4           0  0  0
   12.1162    0.0000   -7.0310 C   0  0  0  0  0  4           0  0  0
  1  8  1  0     0  0
  2 17  2  0     0  0
  3 18  2  0     0  0
  4 19  2  0     0  0
  5  6  1  0     0  0
  5  9  1  0     0  0
  6 10  2  0     0  0
  7 11  1  0     0  0
  7 17  1  0     0  0
  7 18  1  0     0  0
  8 13  2  0     0  0
  8 14  1  0     0  0
  9 12  2  0     0  0
  9 17  1  0     0  0
 10 12  1  0     0  0
 10 19  1  0     0  0
 11 15  2  0     0  0
 11 16  1  0     0  0
 12 18  1  0     0  0
 13 15  1  0     0  0
 14 16  2  0     0  0
 19 20  1  0     0  0
 20 21  1  0     0  0
 21 22  1  0     0  0
 22 23  1  0     0  0
 23 24  1  0     0  0
 24 25  1  0     0  0
 25 26  1  0     0  0
 26 27  1  0     0  0
 27 28  1  0     0  0
 28 29  1  0     0  0
 29 30  1  0     0  0
 30 31  1  0     0  0
 31 32  1  0     0  0
 32 33  1  0     0  0
 33 34  1  0     0  0
 34 35  1  0     0  0
 35 36  1  0     0  0
M  END
> <standard_type>
IC50

> <# Confs.>
25

> <canonical_smiles>
O=C1C2=C(C(C(CCCCCCCCCCCCCCCCC)=O)=NN2)C(N1C3=CC=C(F)C=C3)=O

> <standard_relation>
=

> <predicted_activity_value>
6.173925197299173

> <actual_activity_value>
6.267606240177032

> <Compound>
7

> <publication_ID>
nan

> <standard_units>
nM

> hash
3683890307485763977

$$$$
7_
XXILIB    08252103493D 0   0.00000     0.00000

 36 38  0     1  0            999 V2000
  -16.1590   -1.7294    3.9072 F   0  0  0  0  0  1           0  0  0
  -10.3042   -4.4701    4.0446 O   0  0  0  0  0  2           0  0  0
  -10.0072    0.2207    4.0970 O   0  0  0  0  0  2           0  0  0
   -6.9585    1.0666    4.1791 O   0  0  0  0  0  2           0  0  0
   -7.3002   -3.4000    4.1440 N   0  0  0  0  0  3           0  0  0
   -6.3570   -2.4283    4.1780 N   0  0  0  0  0  3           0  0  0
  -10.6091   -2.0969    4.0558 N   0  0  2  0  0  3           0  0  0
  -14.8223   -1.8191    3.9415 C   0  0  0  0  0  4           0  0  0
   -8.5450   -2.8907    4.1107 C   0  0  0  0  0  4           0  0  0
   -7.0551   -1.2699    4.1646 C   0  0  0  0  0  4           0  0  0
  -12.0270   -2.0057    4.0144 C   0  0  0  0  0  4           0  0  0
   -8.4295   -1.5357    4.1243 C   0  0  0  0  0  4           0  0  0
  -14.2237   -2.9140    4.5522 C   0  0  0  0  0  4           0  0  0
  -14.0527   -0.8164    3.3653 C   0  0  0  0  0  4           0  0  0
  -12.8304   -3.0083    4.5866 C   0  0  0  0  0  4           0  0  0
  -12.6593   -0.9090    3.4017 C   0  0  0  0  0  4           0  0  0
   -9.9024   -3.3180    4.0670 C   0  0  0  0  0  4           0  0  0
   -9.7521   -0.9722    4.0912 C   0  0  0  0  0  4           0  0  0
   -6.3442   -0.0000    4.1907 C   0  0  0  0  0  4           0  0  0
   -4.8306    0.0000    4.2191 C   0  0  0  0  0  4           0  0  0
   -4.2380   -0.0000    2.8129 C   0  0  0  0  0  4           0  0  0
   -2.7117    0.0000    2.8129 C   0  0  0  0  0  4           0  0  0
   -2.1190   -0.0000    1.4064 C   0  0  0  0  0  4           0  0  0
   -0.5927    0.0000    1.4064 C   0  0  0  0  0  4           0  0  0
    0.0000   -0.0000    0.0000 C   0  0  0  0  0  4           0  0  0
    1.5260    0.0000    0.0000 C   0  0  0  0  0  4           0  0  0
    2.1188    0.0000   -1.4064 C   0  0  0  0  0  4           0  0  0
    3.6450    0.0000   -1.4064 C   0  0  0  0  0  4           0  0  0
    4.2378    0.0000   -2.8129 C   0  0  0  0  0  4           0  0  0
    5.7640    0.0000   -2.8129 C   0  0  0  0  0  4           0  0  0
    6.3567    0.0000   -4.2193 C   0  0  0  0  0  4           0  0  0
    7.8830    0.0000   -4.2193 C   0  0  0  0  0  4           0  0  0
    8.4757    0.0000   -5.6258 C   0  0  0  0  0  4           0  0  0
   10.0019    0.0000   -5.6258 C   0  0  0  0  0  4           0  0  0
   10.5947    0.0000   -7.0322 C   0  0  0  0  0  4           0  0  0
   12.1162    0.0000   -7.0310 C   0  0  0  0  0  4           0  0  0
  1  8  1  0     0  0
  2 17  2  0     0  0
  3 18  2  0     0  0
  4 19  2  0     0  0
  5  6  1  0     0  0
  5  9  1  0     0  0
  6 10  2  0     0  0
  7 11  1  0     0  0
  7 17  1  0     0  0
  7 18  1  0     0  0
  8 13  2  0     0  0
  8 14  1  0     0  0
  9 12  2  0     0  0
  9 17  1  0     0  0
 10 12  1  0     0  0
 10 19  1  0     0  0
 11 15  2  0     0  0
 11 16  1  0     0  0
 12 18  1  0     0  0
 13 15  1  0     0  0
 14 16  2  0     0  0
 19 20  1  0     0  0
 20 21  1  0     0  0
 21 22  1  0     0  0
 22 23  1  0     0  0
 23 24  1  0     0  0
 24 25  1  0     0  0
 25 26  1  0     0  0
 26 27  1  0     0  0
 27 28  1  0     0  0
 28 29  1  0     0  0
 29 30  1  0     0  0
 30 31  1  0     0  0
 31 32  1  0     0  0
 32 33  1  0     0  0
 33 34  1  0     0  0
 34 35  1  0     0  0
 35 36  1  0     0  0
M  END
> <standard_type>
IC50

> <# Confs.>
25

> <canonical_smiles>
O=C1C2=C(C(C(CCCCCCCCCCCCCCCCC)=O)=NN2)C(N1C3=CC=C(F)C=C3)=O

> <standard_relation>
=

> <predicted_activity_value>
6.173925197299173

> <actual_activity_value>
6.267606240177032

> <Compound>
7

> <publication_ID>
nan

> <standard_units>
nM

> hash
3683890307485763977

$$$$
7_
XXILIB    08252103493D 0   0.00000     0.00000

 36 38  0     1  0            999 V2000
  -16.1628    1.7294    4.1047 F   0  0  0  0  0  1           0  0  0
  -10.3069    4.4701    4.1877 O   0  0  0  0  0  2           0  0  0
  -10.0082   -0.2207    4.1465 O   0  0  0  0  0  2           0  0  0
   -6.9585   -1.0666    4.1791 O   0  0  0  0  0  2           0  0  0
   -7.3013    3.4000    4.2013 N   0  0  0  0  0  3           0  0  0
   -6.3575    2.4283    4.2028 N   0  0  0  0  0  3           0  0  0
  -10.6112    2.0969    4.1650 N   0  0  2  0  0  3           0  0  0
  -14.8257    1.8191    4.1207 C   0  0  0  0  0  4           0  0  0
   -8.5465    2.8907    4.1878 C   0  0  0  0  0  4           0  0  0
   -7.0555    1.2699    4.1899 C   0  0  0  0  0  4           0  0  0
  -12.0296    2.0057    4.1531 C   0  0  0  0  0  4           0  0  0
   -8.4305    1.5357    4.1786 C   0  0  0  0  0  4           0  0  0
  -14.2045    2.9140    3.5330 C   0  0  0  0  0  4           0  0  0
  -14.0783    0.8164    4.7255 C   0  0  0  0  0  4           0  0  0
  -12.8109    3.0083    3.5510 C   0  0  0  0  0  4           0  0  0
  -12.6845    0.9090    4.7415 C   0  0  0  0  0  4           0  0  0
   -9.9046    3.3180    4.1804 C   0  0  0  0  0  4           0  0  0
   -9.7535    0.9722    4.1619 C   0  0  0  0  0  4           0  0  0
   -6.3442   -0.0000    4.1907 C   0  0  0  0  0  4           0  0  0
   -4.8306    0.0000    4.2191 C   0  0  0  0  0  4           0  0  0
   -4.2380   -0.0000    2.8129 C   0  0  0  0  0  4           0  0  0
   -2.7117    0.0000    2.8129 C   0  0  0  0  0  4           0  0  0
   -2.1190   -0.0000    1.4064 C   0  0  0  0  0  4           0  0  0
   -0.5927    0.0000    1.4064 C   0  0  0  0  0  4           0  0  0
    0.0000   -0.0000    0.0000 C   0  0  0  0  0  4           0  0  0
    1.5260    0.0000    0.0000 C   0  0  0  0  0  4           0  0  0
    2.1188    0.0000   -1.4064 C   0  0  0  0  0  4           0  0  0
    3.6450    0.0000   -1.4064 C   0  0  0  0  0  4           0  0  0
    4.2378    0.0000   -2.8129 C   0  0  0  0  0  4           0  0  0
    5.7640    0.0000   -2.8129 C   0  0  0  0  0  4           0  0  0
    6.3567    0.0000   -4.2193 C   0  0  0  0  0  4           0  0  0
    7.8830    0.0000   -4.2193 C   0  0  0  0  0  4           0  0  0
    8.4757    0.0000   -5.6258 C   0  0  0  0  0  4           0  0  0
   10.0019    0.0000   -5.6258 C   0  0  0  0  0  4           0  0  0
   10.5947    0.0000   -7.0322 C   0  0  0  0  0  4           0  0  0
   12.1162    0.0000   -7.0310 C   0  0  0  0  0  4           0  0  0
  1  8  1  0     0  0
  2 17  2  0     0  0
  3 18  2  0     0  0
  4 19  2  0     0  0
  5  6  1  0     0  0
  5  9  1  0     0  0
  6 10  2  0     0  0
  7 11  1  0     0  0
  7 17  1  0     0  0
  7 18  1  0     0  0
  8 13  2  0     0  0
  8 14  1  0     0  0
  9 12  2  0     0  0
  9 17  1  0     0  0
 10 12  1  0     0  0
 10 19  1  0     0  0
 11 15  2  0     0  0
 11 16  1  0     0  0
 12 18  1  0     0  0
 13 15  1  0     0  0
 14 16  2  0     0  0
 19 20  1  0     0  0
 20 21  1  0     0  0
 21 22  1  0     0  0
 22 23  1  0     0  0
 23 24  1  0     0  0
 24 25  1  0     0  0
 25 26  1  0     0  0
 26 27  1  0     0  0
 27 28  1  0     0  0
 28 29  1  0     0  0
 29 30  1  0     0  0
 30 31  1  0     0  0
 31 32  1  0     0  0
 32 33  1  0     0  0
 33 34  1  0     0  0
 34 35  1  0     0  0
 35 36  1  0     0  0
M  END
> <standard_type>
IC50

> <# Confs.>
25

> <canonical_smiles>
O=C1C2=C(C(C(CCCCCCCCCCCCCCCCC)=O)=NN2)C(N1C3=CC=C(F)C=C3)=O

> <standard_relation>
=

> <predicted_activity_value>
6.173925197299173

> <actual_activity_value>
6.267606240177032

> <Compound>
7

> <publication_ID>
nan

> <standard_units>
nM

> hash
3683890307485763977

$$$$
7_
XXILIB    08252103493D 0   0.00000     0.00000

 36 38  0     1  0            999 V2000
  -16.1879   -0.9782    5.4429 F   0  0  0  0  0  1           0  0  0
  -10.3777   -2.2970    7.9509 O   0  0  0  0  0  2           0  0  0
  -10.0039    0.0889    3.9183 O   0  0  0  0  0  2           0  0  0
   -6.9411    0.5333    3.2556 O   0  0  0  0  0  2           0  0  0
   -7.3559   -1.7248    7.1023 N   0  0  0  0  0  3           0  0  0
   -6.3967   -1.2249    6.2868 N   0  0  0  0  0  3           0  0  0
  -10.6438   -1.0957    5.8987 N   0  0  2  0  0  3           0  0  0
  -14.8526   -1.0053    5.5542 C   0  0  0  0  0  4           0  0  0
   -8.5925   -1.4787    6.6330 C   0  0  0  0  0  4           0  0  0
   -7.0759   -0.6459    5.2705 C   0  0  0  0  0  4           0  0  0
  -12.0603   -1.0629    5.7857 C   0  0  0  0  0  4           0  0  0
   -8.4548   -0.7914    5.4675 C   0  0  0  0  0  4           0  0  0
  -14.0985    0.0316    5.0191 C   0  0  0  0  0  4           0  0  0
  -14.2401   -2.0695    6.2038 C   0  0  0  0  0  4           0  0  0
  -12.7068    0.0041    5.1364 C   0  0  0  0  0  4           0  0  0
  -12.8482   -2.0987    6.3191 C   0  0  0  0  0  4           0  0  0
   -9.9570   -1.7081    6.9683 C   0  0  0  0  0  4           0  0  0
   -9.7683   -0.5168    4.9507 C   0  0  0  0  0  4           0  0  0
   -6.3442   -0.0000    4.1907 C   0  0  0  0  0  4           0  0  0
   -4.8306    0.0000    4.2191 C   0  0  0  0  0  4           0  0  0
   -4.2380   -0.0000    2.8129 C   0  0  0  0  0  4           0  0  0
   -2.7117    0.0000    2.8129 C   0  0  0  0  0  4           0  0  0
   -2.1190   -0.0000    1.4064 C   0  0  0  0  0  4           0  0  0
   -0.5927    0.0000    1.4064 C   0  0  0  0  0  4           0  0  0
    0.0000   -0.0000    0.0000 C   0  0  0  0  0  4           0  0  0
    1.5260    0.0000    0.0000 C   0  0  0  0  0  4           0  0  0
    2.1188    0.0000   -1.4064 C   0  0  0  0  0  4           0  0  0
    3.6450    0.0000   -1.4064 C   0  0  0  0  0  4           0  0  0
    4.2378    0.0000   -2.8129 C   0  0  0  0  0  4           0  0  0
    5.7640    0.0000   -2.8129 C   0  0  0  0  0  4           0  0  0
    6.3567    0.0000   -4.2193 C   0  0  0  0  0  4           0  0  0
    7.8830    0.0000   -4.2193 C   0  0  0  0  0  4           0  0  0
    8.4757    0.0000   -5.6258 C   0  0  0  0  0  4           0  0  0
   10.0019    0.0000   -5.6258 C   0  0  0  0  0  4           0  0  0
   10.5947    0.0000   -7.0322 C   0  0  0  0  0  4           0  0  0
   12.1162    0.0000   -7.0310 C   0  0  0  0  0  4           0  0  0
  1  8  1  0     0  0
  2 17  2  0     0  0
  3 18  2  0     0  0
  4 19  2  0     0  0
  5  6  1  0     0  0
  5  9  1  0     0  0
  6 10  2  0     0  0
  7 11  1  0     0  0
  7 17  1  0     0  0
  7 18  1  0     0  0
  8 13  2  0     0  0
  8 14  1  0     0  0
  9 12  2  0     0  0
  9 17  1  0     0  0
 10 12  1  0     0  0
 10 19  1  0     0  0
 11 15  2  0     0  0
 11 16  1  0     0  0
 12 18  1  0     0  0
 13 15  1  0     0  0
 14 16  2  0     0  0
 19 20  1  0     0  0
 20 21  1  0     0  0
 21 22  1  0     0  0
 22 23  1  0     0  0
 23 24  1  0     0  0
 24 25  1  0     0  0
 25 26  1  0     0  0
 26 27  1  0     0  0
 27 28  1  0     0  0
 28 29  1  0     0  0
 29 30  1  0     0  0
 30 31  1  0     0  0
 31 32  1  0     0  0
 32 33  1  0     0  0
 33 34  1  0     0  0
 34 35  1  0     0  0
 35 36  1  0     0  0
M  END
> <standard_type>
IC50

> <# Confs.>
25

> <canonical_smiles>
O=C1C2=C(C(C(CCCCCCCCCCCCCCCCC)=O)=NN2)C(N1C3=CC=C(F)C=C3)=O

> <standard_relation>
=

> <predicted_activity_value>
6.173925197299173

> <actual_activity_value>
6.267606240177032

> <Compound>
7

> <publication_ID>
nan

> <standard_units>
nM

> hash
3683890307485763977

$$$$
7_
XXILIB    08252103493D 0   0.00000     0.00000

 36 38  0     1  0            999 V2000
  -16.1903    0.7555    5.5714 F   0  0  0  0  0  1           0  0  0
  -10.3791    2.1731    8.0225 O   0  0  0  0  0  2           0  0  0
  -10.0044   -0.1318    3.9431 O   0  0  0  0  0  2           0  0  0
   -6.9411   -0.5333    3.2556 O   0  0  0  0  0  2           0  0  0
   -7.3564    1.6752    7.1309 N   0  0  0  0  0  3           0  0  0
   -6.3969    1.2034    6.2992 N   0  0  0  0  0  3           0  0  0
  -10.6448    1.0011    5.9533 N   0  0  2  0  0  3           0  0  0
  -14.8547    0.8166    5.6631 C   0  0  0  0  0  4           0  0  0
   -8.5932    1.4120    6.6715 C   0  0  0  0  0  4           0  0  0
   -7.0761    0.6240    5.2832 C   0  0  0  0  0  4           0  0  0
  -12.0616    0.9428    5.8551 C   0  0  0  0  0  4           0  0  0
   -8.4553    0.7443    5.4947 C   0  0  0  0  0  4           0  0  0
  -14.0888    0.8594    4.5048 C   0  0  0  0  0  4           0  0  0
  -14.2535    0.8370    6.9153 C   0  0  0  0  0  4           0  0  0
  -12.6967    0.9246    4.6004 C   0  0  0  0  0  4           0  0  0
  -12.8612    0.8996    7.0113 C   0  0  0  0  0  4           0  0  0
   -9.9581    1.6099    7.0250 C   0  0  0  0  0  4           0  0  0
   -9.7690    0.4555    4.9861 C   0  0  0  0  0  4           0  0  0
   -6.3442   -0.0000    4.1907 C   0  0  0  0  0  4           0  0  0
   -4.8306    0.0000    4.2191 C   0  0  0  0  0  4           0  0  0
   -4.2380   -0.0000    2.8129 C   0  0  0  0  0  4           0  0  0
   -2.7117    0.0000    2.8129 C   0  0  0  0  0  4           0  0  0
   -2.1190   -0.0000    1.4064 C   0  0  0  0  0  4           0  0  0
   -0.5927    0.0000    1.4064 C   0  0  0  0  0  4           0  0  0
    0.0000   -0.0000    0.0000 C   0  0  0  0  0  4           0  0  0
    1.5260    0.0000    0.0000 C   0  0  0  0  0  4           0  0  0
    2.1188    0.0000   -1.4064 C   0  0  0  0  0  4           0  0  0
    3.6450    0.0000   -1.4064 C   0  0  0  0  0  4           0  0  0
    4.2378    0.0000   -2.8129 C   0  0  0  0  0  4           0  0  0
    5.7640    0.0000   -2.8129 C   0  0  0  0  0  4           0  0  0
    6.3567    0.0000   -4.2193 C   0  0  0  0  0  4           0  0  0
    7.8830    0.0000   -4.2193 C   0  0  0  0  0  4           0  0  0
    8.4757    0.0000   -5.6258 C   0  0  0  0  0  4           0  0  0
   10.0019    0.0000   -5.6258 C   0  0  0  0  0  4           0  0  0
   10.5947    0.0000   -7.0322 C   0  0  0  0  0  4           0  0  0
   12.1162    0.0000   -7.0310 C   0  0  0  0  0  4           0  0  0
  1  8  1  0     0  0
  2 17  2  0     0  0
  3 18  2  0     0  0
  4 19  2  0     0  0
  5  6  1  0     0  0
  5  9  1  0     0  0
  6 10  2  0     0  0
  7 11  1  0     0  0
  7 17  1  0     0  0
  7 18  1  0     0  0
  8 13  2  0     0  0
  8 14  1  0     0  0
  9 12  2  0     0  0
  9 17  1  0     0  0
 10 12  1  0     0  0
 10 19  1  0     0  0
 11 15  2  0     0  0
 11 16  1  0     0  0
 12 18  1  0     0  0
 13 15  1  0     0  0
 14 16  2  0     0  0
 19 20  1  0     0  0
 20 21  1  0     0  0
 21 22  1  0     0  0
 22 23  1  0     0  0
 23 24  1  0     0  0
 24 25  1  0     0  0
 25 26  1  0     0  0
 26 27  1  0     0  0
 27 28  1  0     0  0
 28 29  1  0     0  0
 29 30  1  0     0  0
 30 31  1  0     0  0
 31 32  1  0     0  0
 32 33  1  0     0  0
 33 34  1  0     0  0
 34 35  1  0     0  0
 35 36  1  0     0  0
M  END
> <standard_type>
IC50

> <# Confs.>
25

> <canonical_smiles>
O=C1C2=C(C(C(CCCCCCCCCCCCCCCCC)=O)=NN2)C(N1C3=CC=C(F)C=C3)=O

> <standard_relation>
=

> <predicted_activity_value>
6.173925197299173

> <actual_activity_value>
6.267606240177032

> <Compound>
7

> <publication_ID>
nan

> <standard_units>
nM

> hash
3683890307485763977

$$$$
7_
XXILIB    08252103493D 0   0.00000     0.00000

 36 38  0     1  0            999 V2000
   -2.9420   10.0102    9.4774 F   0  0  0  0  0  1           0  0  0
   -6.8058    6.6620    5.5189 O   0  0  0  0  0  2           0  0  0
   -3.1717    4.0620    6.9777 O   0  0  0  0  0  2           0  0  0
   -3.3754    1.1783    5.6892 O   0  0  0  0  0  2           0  0  0
   -6.8275    3.6961    4.3432 N   0  0  0  0  0  3           0  0  0
   -6.3286    2.4461    4.1900 N   0  0  0  0  0  3           0  0  0
   -4.8344    5.7149    6.4895 N   0  0  2  0  0  3           0  0  0
   -3.3980    8.9768    8.7562 C   0  0  0  0  0  4           0  0  0
   -6.0625    4.4461    5.1570 C   0  0  0  0  0  4           0  0  0
   -5.2058    2.4285    4.9440 C   0  0  0  0  0  4           0  0  0
   -4.3512    6.8148    7.2493 C   0  0  0  0  0  4           0  0  0
   -5.0200    3.6718    5.5612 C   0  0  0  0  0  4           0  0  0
   -4.7635    8.8412    8.5392 C   0  0  0  0  0  4           0  0  0
   -2.4991    8.0551    8.2345 C   0  0  0  0  0  4           0  0  0
   -5.2386    7.7648    7.7861 C   0  0  0  0  0  4           0  0  0
   -2.9740    6.9771    7.4835 C   0  0  0  0  0  4           0  0  0
   -6.0084    5.7577    5.7081 C   0  0  0  0  0  4           0  0  0
   -4.1905    4.4568    6.4351 C   0  0  0  0  0  4           0  0  0
   -4.4009    1.2175    5.0097 C   0  0  0  0  0  4           0  0  0
   -4.8306    0.0000    4.2191 C   0  0  0  0  0  4           0  0  0
   -4.2380    0.0000    2.8129 C   0  0  0  0  0  4           0  0  0
   -2.7117    0.0000    2.8129 C   0  0  0  0  0  4           0  0  0
   -2.1190    0.0000    1.4064 C   0  0  0  0  0  4           0  0  0
   -0.5927    0.0000    1.4064 C   0  0  0  0  0  4           0  0  0
    0.0000    0.0000    0.0000 C   0  0  0  0  0  4           0  0  0
    1.5260    0.0000    0.0000 C   0  0  0  0  0  4           0  0  0
    2.1188    0.0000   -1.4064 C   0  0  0  0  0  4           0  0  0
    3.6450    0.0000   -1.4064 C   0  0  0  0  0  4           0  0  0
    4.2378    0.0000   -2.8129 C   0  0  0  0  0  4           0  0  0
    5.7640    0.0000   -2.8129 C   0  0  0  0  0  4           0  0  0
    6.3567    0.0000   -4.2193 C   0  0  0  0  0  4           0  0  0
    7.8830    0.0000   -4.2193 C   0  0  0  0  0  4           0  0  0
    8.4757    0.0000   -5.6258 C   0  0  0  0  0  4           0  0  0
   10.0019    0.0000   -5.6258 C   0  0  0  0  0  4           0  0  0
   10.5947    0.0000   -7.0322 C   0  0  0  0  0  4           0  0  0
   12.1162    0.0000   -7.0310 C   0  0  0  0  0  4           0  0  0
  1  8  1  0     0  0
  2 17  2  0     0  0
  3 18  2  0     0  0
  4 19  2  0     0  0
  5  6  1  0     0  0
  5  9  1  0     0  0
  6 10  2  0     0  0
  7 11  1  0     0  0
  7 17  1  0     0  0
  7 18  1  0     0  0
  8 13  2  0     0  0
  8 14  1  0     0  0
  9 12  2  0     0  0
  9 17  1  0     0  0
 10 12  1  0     0  0
 10 19  1  0     0  0
 11 15  2  0     0  0
 11 16  1  0     0  0
 12 18  1  0     0  0
 13 15  1  0     0  0
 14 16  2  0     0  0
 19 20  1  0     0  0
 20 21  1  0     0  0
 21 22  1  0     0  0
 22 23  1  0     0  0
 23 24  1  0     0  0
 24 25  1  0     0  0
 25 26  1  0     0  0
 26 27  1  0     0  0
 27 28  1  0     0  0
 28 29  1  0     0  0
 29 30  1  0     0  0
 30 31  1  0     0  0
 31 32  1  0     0  0
 32 33  1  0     0  0
 33 34  1  0     0  0
 34 35  1  0     0  0
 35 36  1  0     0  0
M  END
> <standard_type>
IC50

> <# Confs.>
25

> <canonical_smiles>
O=C1C2=C(C(C(CCCCCCCCCCCCCCCCC)=O)=NN2)C(N1C3=CC=C(F)C=C3)=O

> <standard_relation>
=

> <predicted_activity_value>
6.173925197299173

> <actual_activity_value>
6.267606240177032

> <Compound>
7

> <publication_ID>
nan

> <standard_units>
nM

> hash
3683890307485763977

$$$$
7_
XXILIB    08252103493D 0   0.00000     0.00000

 36 38  0     1  0            999 V2000
   -3.0470   -9.9468    9.6322 F   0  0  0  0  0  1           0  0  0
   -6.8819   -6.6160    5.6312 O   0  0  0  0  0  2           0  0  0
   -3.1981   -4.0460    7.0166 O   0  0  0  0  0  2           0  0  0
   -3.3754   -1.1783    5.6892 O   0  0  0  0  0  2           0  0  0
   -6.8580   -3.6777    4.3881 N   0  0  0  0  0  3           0  0  0
   -6.3417   -2.4382    4.2095 N   0  0  0  0  0  3           0  0  0
   -4.8924   -5.6798    6.5751 N   0  0  2  0  0  3           0  0  0
   -3.4932   -8.9192    8.8967 C   0  0  0  0  0  4           0  0  0
   -6.1034   -4.4213    5.2174 C   0  0  0  0  0  4           0  0  0
   -5.2193   -2.4204    4.9638 C   0  0  0  0  0  4           0  0  0
   -4.4250   -6.7702    7.3580 C   0  0  0  0  0  4           0  0  0
   -5.0488   -3.6544    5.6038 C   0  0  0  0  0  4           0  0  0
   -4.2216   -9.1687    7.7402 C   0  0  0  0  0  4           0  0  0
   -3.2223   -7.6180    9.3007 C   0  0  0  0  0  4           0  0  0
   -4.6880   -8.0975    6.9744 C   0  0  0  0  0  4           0  0  0
   -3.6863   -6.5466    8.5337 C   0  0  0  0  0  4           0  0  0
   -6.0687   -5.7213    5.7970 C   0  0  0  0  0  4           0  0  0
   -4.2281   -4.4340    6.4905 C   0  0  0  0  0  4           0  0  0
   -4.4009   -1.2175    5.0097 C   0  0  0  0  0  4           0  0  0
   -4.8306   -0.0000    4.2191 C   0  0  0  0  0  4           0  0  0
   -4.2380   -0.0000    2.8129 C   0  0  0  0  0  4           0  0  0
   -2.7117   -0.0000    2.8129 C   0  0  0  0  0  4           0  0  0
   -2.1190   -0.0000    1.4064 C   0  0  0  0  0  4           0  0  0
   -0.5927    0.0000    1.4064 C   0  0  0  0  0  4           0  0  0
    0.0000    0.0000    0.0000 C   0  0  0  0  0  4           0  0  0
    1.5260    0.0000    0.0000 C   0  0  0  0  0  4           0  0  0
    2.1188    0.0000   -1.4064 C   0  0  0  0  0  4           0  0  0
    3.6450    0.0000   -1.4064 C   0  0  0  0  0  4           0  0  0
    4.2378    0.0000   -2.8129 C   0  0  0  0  0  4           0  0  0
    5.7640    0.0000   -2.8129 C   0  0  0  0  0  4           0  0  0
    6.3567    0.0000   -4.2193 C   0  0  0  0  0  4           0  0  0
    7.8830    0.0000   -4.2193 C   0  0  0  0  0  4           0  0  0
    8.4757    0.0000   -5.6258 C   0  0  0  0  0  4           0  0  0
   10.0019    0.0000   -5.6258 C   0  0  0  0  0  4           0  0  0
   10.5947    0.0000   -7.0322 C   0  0  0  0  0  4           0  0  0
   12.1162    0.0000   -7.0310 C   0  0  0  0  0  4           0  0  0
  1  8  1  0     0  0
  2 17  2  0     0  0
  3 18  2  0     0  0
  4 19  2  0     0  0
  5  6  1  0     0  0
  5  9  1  0     0  0
  6 10  2  0     0  0
  7 11  1  0     0  0
  7 17  1  0     0  0
  7 18  1  0     0  0
  8 13  2  0     0  0
  8 14  1  0     0  0
  9 12  2  0     0  0
  9 17  1  0     0  0
 10 12  1  0     0  0
 10 19  1  0     0  0
 11 15  2  0     0  0
 11 16  1  0     0  0
 12 18  1  0     0  0
 13 15  1  0     0  0
 14 16  2  0     0  0
 19 20  1  0     0  0
 20 21  1  0     0  0
 21 22  1  0     0  0
 22 23  1  0     0  0
 23 24  1  0     0  0
 24 25  1  0     0  0
 25 26  1  0     0  0
 26 27  1  0     0  0
 27 28  1  0     0  0
 28 29  1  0     0  0
 29 30  1  0     0  0
 30 31  1  0     0  0
 31 32  1  0     0  0
 32 33  1  0     0  0
 33 34  1  0     0  0
 34 35  1  0     0  0
 35 36  1  0     0  0
M  END
> <standard_type>
IC50

> <# Confs.>
25

> <canonical_smiles>
O=C1C2=C(C(C(CCCCCCCCCCCCCCCCC)=O)=NN2)C(N1C3=CC=C(F)C=C3)=O

> <standard_relation>
=

> <predicted_activity_value>
6.173925197299173

> <actual_activity_value>
6.267606240177032

> <Compound>
7

> <publication_ID>
nan

> <standard_units>
nM

> hash
3683890307485763977

$$$$
7_
XXILIB    08252103493D 0   0.00000     0.00000

 36 38  0     1  0            999 V2000
   -1.5977   -8.1630   11.5918 F   0  0  0  0  0  1           0  0  0
   -3.4821   -2.0232   10.8570 O   0  0  0  0  0  2           0  0  0
   -3.3238   -4.2742    6.7336 O   0  0  0  0  0  2           0  0  0
   -4.1612   -2.2750    4.4272 O   0  0  0  0  0  2           0  0  0
   -4.3105   -0.1832    8.3857 N   0  0  0  0  0  3           0  0  0
   -4.5343    0.0580    7.0717 N   0  0  0  0  0  3           0  0  0
   -3.2664   -3.5265    9.0079 N   0  0  2  0  0  3           0  0  0
   -2.0014   -7.0464   10.9702 C   0  0  0  0  0  4           0  0  0
   -3.9164   -1.4509    8.6036 C   0  0  0  0  0  4           0  0  0
   -4.2649   -1.1153    6.4552 C   0  0  0  0  0  4           0  0  0
   -2.8441   -4.7113    9.6699 C   0  0  0  0  0  4           0  0  0
   -3.8771   -2.0767    7.3968 C   0  0  0  0  0  4           0  0  0
   -2.7480   -7.1430    9.8027 C   0  0  0  0  0  4           0  0  0
   -1.6685   -5.8070   11.5020 C   0  0  0  0  0  4           0  0  0
   -3.1701   -5.9791    9.1556 C   0  0  0  0  0  4           0  0  0
   -2.0881   -4.6428   10.8539 C   0  0  0  0  0  4           0  0  0
   -3.5398   -2.3125    9.6728 C   0  0  0  0  0  4           0  0  0
   -3.4591   -3.4361    7.6096 C   0  0  0  0  0  4           0  0  0
   -4.4009   -1.2175    5.0097 C   0  0  0  0  0  4           0  0  0
   -4.8306   -0.0000    4.2191 C   0  0  0  0  0  4           0  0  0
   -4.2380   -0.0000    2.8129 C   0  0  0  0  0  4           0  0  0
   -2.7117   -0.0000    2.8129 C   0  0  0  0  0  4           0  0  0
   -2.1190   -0.0000    1.4064 C   0  0  0  0  0  4           0  0  0
   -0.5927    0.0000    1.4064 C   0  0  0  0  0  4           0  0  0
    0.0000    0.0000    0.0000 C   0  0  0  0  0  4           0  0  0
    1.5260    0.0000    0.0000 C   0  0  0  0  0  4           0  0  0
    2.1188    0.0000   -1.4064 C   0  0  0  0  0  4           0  0  0
    3.6450    0.0000   -1.4064 C   0  0  0  0  0  4           0  0  0
    4.2378    0.0000   -2.8129 C   0  0  0  0  0  4           0  0  0
    5.7640    0.0000   -2.8129 C   0  0  0  0  0  4           0  0  0
    6.3567    0.0000   -4.2193 C   0  0  0  0  0  4           0  0  0
    7.8830    0.0000   -4.2193 C   0  0  0  0  0  4           0  0  0
    8.4757    0.0000   -5.6258 C   0  0  0  0  0  4           0  0  0
   10.0019    0.0000   -5.6258 C   0  0  0  0  0  4           0  0  0
   10.5947    0.0000   -7.0322 C   0  0  0  0  0  4           0  0  0
   12.1162    0.0000   -7.0310 C   0  0  0  0  0  4           0  0  0
  1  8  1  0     0  0
  2 17  2  0     0  0
  3 18  2  0     0  0
  4 19  2  0     0  0
  5  6  1  0     0  0
  5  9  1  0     0  0
  6 10  2  0     0  0
  7 11  1  0     0  0
  7 17  1  0     0  0
  7 18  1  0     0  0
  8 13  2  0     0  0
  8 14  1  0     0  0
  9 12  2  0     0  0
  9 17  1  0     0  0
 10 12  1  0     0  0
 10 19  1  0     0  0
 11 15  2  0     0  0
 11 16  1  0     0  0
 12 18  1  0     0  0
 13 15  1  0     0  0
 14 16  2  0     0  0
 19 20  1  0     0  0
 20 21  1  0     0  0
 21 22  1  0     0  0
 22 23  1  0     0  0
 23 24  1  0     0  0
 24 25  1  0     0  0
 25 26  1  0     0  0
 26 27  1  0     0  0
 27 28  1  0     0  0
 28 29  1  0     0  0
 29 30  1  0     0  0
 30 31  1  0     0  0
 31 32  1  0     0  0
 32 33  1  0     0  0
 33 34  1  0     0  0
 34 35  1  0     0  0
 35 36  1  0     0  0
M  END
> <standard_type>
IC50

> <# Confs.>
25

> <canonical_smiles>
O=C1C2=C(C(C(CCCCCCCCCCCCCCCCC)=O)=NN2)C(N1C3=CC=C(F)C=C3)=O

> <standard_relation>
=

> <predicted_activity_value>
6.173925197299173

> <actual_activity_value>
6.267606240177032

> <Compound>
7

> <publication_ID>
nan

> <standard_units>
nM

> hash
3683890307485763977

$$$$
7_
XXILIB    08252103493D 0   0.00000     0.00000

 36 38  0     1  0            999 V2000
   -1.8437    8.2330   11.6177 F   0  0  0  0  0  1           0  0  0
   -3.6191    2.0622   10.8714 O   0  0  0  0  0  2           0  0  0
   -3.3712    4.2877    6.7385 O   0  0  0  0  0  2           0  0  0
   -4.1612    2.2750    4.4272 O   0  0  0  0  0  2           0  0  0
   -4.3653    0.1988    8.3915 N   0  0  0  0  0  3           0  0  0
   -4.5580   -0.0513    7.0742 N   0  0  0  0  0  3           0  0  0
   -3.3709    3.5562    9.0189 N   0  0  2  0  0  3           0  0  0
   -2.2098    7.1058   10.9922 C   0  0  0  0  0  4           0  0  0
   -3.9902    1.4719    8.6114 C   0  0  0  0  0  4           0  0  0
   -4.2891    1.1222    6.4577 C   0  0  0  0  0  4           0  0  0
   -2.9768    4.7491    9.6838 C   0  0  0  0  0  4           0  0  0
   -3.9290    2.0915    7.4022 C   0  0  0  0  0  4           0  0  0
   -1.7635    6.8627    9.6992 C   0  0  0  0  0  4           0  0  0
   -3.0303    6.1946   11.6452 C   0  0  0  0  0  4           0  0  0
   -2.1439    5.6870    9.0478 C   0  0  0  0  0  4           0  0  0
   -3.4131    5.0199   10.9932 C   0  0  0  0  0  4           0  0  0
   -3.6484    2.3434    9.6842 C   0  0  0  0  0  4           0  0  0
   -3.5269    3.4554    7.6167 C   0  0  0  0  0  4           0  0  0
   -4.4009    1.2175    5.0097 C   0  0  0  0  0  4           0  0  0
   -4.8306    0.0000    4.2191 C   0  0  0  0  0  4           0  0  0
   -4.2380    0.0000    2.8129 C   0  0  0  0  0  4           0  0  0
   -2.7117    0.0000    2.8129 C   0  0  0  0  0  4           0  0  0
   -2.1190    0.0000    1.4064 C   0  0  0  0  0  4           0  0  0
   -0.5927    0.0000    1.4064 C   0  0  0  0  0  4           0  0  0
    0.0000    0.0000    0.0000 C   0  0  0  0  0  4           0  0  0
    1.5260    0.0000    0.0000 C   0  0  0  0  0  4           0  0  0
    2.1188    0.0000   -1.4064 C   0  0  0  0  0  4           0  0  0
    3.6450    0.0000   -1.4064 C   0  0  0  0  0  4           0  0  0
    4.2378    0.0000   -2.8129 C   0  0  0  0  0  4           0  0  0
    5.7640    0.0000   -2.8129 C   0  0  0  0  0  4           0  0  0
    6.3567    0.0000   -4.2193 C   0  0  0  0  0  4           0  0  0
    7.8830    0.0000   -4.2193 C   0  0  0  0  0  4           0  0  0
    8.4757    0.0000   -5.6258 C   0  0  0  0  0  4           0  0  0
   10.0019    0.0000   -5.6258 C   0  0  0  0  0  4           0  0  0
   10.5947    0.0000   -7.0322 C   0  0  0  0  0  4           0  0  0
   12.1162    0.0000   -7.0310 C   0  0  0  0  0  4           0  0  0
  1  8  1  0     0  0
  2 17  2  0     0  0
  3 18  2  0     0  0
  4 19  2  0     0  0
  5  6  1  0     0  0
  5  9  1  0     0  0
  6 10  2  0     0  0
  7 11  1  0     0  0
  7 17  1  0     0  0
  7 18  1  0     0  0
  8 13  2  0     0  0
  8 14  1  0     0  0
  9 12  2  0     0  0
  9 17  1  0     0  0
 10 12  1  0     0  0
 10 19  1  0     0  0
 11 15  2  0     0  0
 11 16  1  0     0  0
 12 18  1  0     0  0
 13 15  1  0     0  0
 14 16  2  0     0  0
 19 20  1  0     0  0
 20 21  1  0     0  0
 21 22  1  0     0  0
 22 23  1  0     0  0
 23 24  1  0     0  0
 24 25  1  0     0  0
 25 26  1  0     0  0
 26 27  1  0     0  0
 27 28  1  0     0  0
 28 29  1  0     0  0
 29 30  1  0     0  0
 30 31  1  0     0  0
 31 32  1  0     0  0
 32 33  1  0     0  0
 33 34  1  0     0  0
 34 35  1  0     0  0
 35 36  1  0     0  0
M  END
> <standard_type>
IC50

> <# Confs.>
25

> <canonical_smiles>
O=C1C2=C(C(C(CCCCCCCCCCCCCCCCC)=O)=NN2)C(N1C3=CC=C(F)C=C3)=O

> <standard_relation>
=

> <predicted_activity_value>
6.173925197299173

> <actual_activity_value>
6.267606240177032

> <Compound>
7

> <publication_ID>
nan

> <standard_units>
nM

> hash
3683890307485763977

$$$$
7_
XXILIB    08252103493D 0   0.00000     0.00000

 36 38  0     1  0            999 V2000
   -0.7939   -8.0900   11.2675 F   0  0  0  0  0  1           0  0  0
   -1.3136   -1.7523   10.0956 O   0  0  0  0  0  2           0  0  0
   -3.4336   -4.2960    6.7595 O   0  0  0  0  0  2           0  0  0
   -4.6802   -2.3448    4.6018 O   0  0  0  0  0  2           0  0  0
   -2.6587    0.0306    7.8172 N   0  0  0  0  0  3           0  0  0
   -3.3537    0.2132    6.6690 N   0  0  0  0  0  3           0  0  0
   -2.2512   -3.4057    8.6421 N   0  0  2  0  0  3           0  0  0
   -1.1431   -6.9611   10.6353 C   0  0  0  0  0  4           0  0  0
   -2.5133   -1.2734    8.1145 C   0  0  0  0  0  4           0  0  0
   -3.6481   -1.0360    6.2420 C   0  0  0  0  0  4           0  0  0
   -1.8747   -4.6009    9.3130 C   0  0  0  0  0  4           0  0  0
   -3.1323   -1.9844    7.1342 C   0  0  0  0  0  4           0  0  0
   -1.3655   -5.8036   11.3707 C   0  0  0  0  0  4           0  0  0
   -1.2773   -6.9629    9.2526 C   0  0  0  0  0  4           0  0  0
   -1.7280   -4.6266   10.7115 C   0  0  0  0  0  4           0  0  0
   -1.6423   -5.7867    8.5932 C   0  0  0  0  0  4           0  0  0
   -1.9306   -2.1124    9.1062 C   0  0  0  0  0  4           0  0  0
   -2.9894   -3.3831    7.4359 C   0  0  0  0  0  4           0  0  0
   -4.4009   -1.2175    5.0097 C   0  0  0  0  0  4           0  0  0
   -4.8306   -0.0000    4.2191 C   0  0  0  0  0  4           0  0  0
   -4.2380   -0.0000    2.8129 C   0  0  0  0  0  4           0  0  0
   -2.7117   -0.0000    2.8129 C   0  0  0  0  0  4           0  0  0
   -2.1190   -0.0000    1.4064 C   0  0  0  0  0  4           0  0  0
   -0.5927    0.0000    1.4064 C   0  0  0  0  0  4           0  0  0
    0.0000    0.0000    0.0000 C   0  0  0  0  0  4           0  0  0
    1.5260    0.0000    0.0000 C   0  0  0  0  0  4           0  0  0
    2.1188    0.0000   -1.4064 C   0  0  0  0  0  4           0  0  0
    3.6450    0.0000   -1.4064 C   0  0  0  0  0  4           0  0  0
    4.2378    0.0000   -2.8129 C   0  0  0  0  0  4           0  0  0
    5.7640    0.0000   -2.8129 C   0  0  0  0  0  4           0  0  0
    6.3567    0.0000   -4.2193 C   0  0  0  0  0  4           0  0  0
    7.8830    0.0000   -4.2193 C   0  0  0  0  0  4           0  0  0
    8.4757    0.0000   -5.6258 C   0  0  0  0  0  4           0  0  0
   10.0019    0.0000   -5.6258 C   0  0  0  0  0  4           0  0  0
   10.5947    0.0000   -7.0322 C   0  0  0  0  0  4           0  0  0
   12.1162    0.0000   -7.0310 C   0  0  0  0  0  4           0  0  0
  1  8  1  0     0  0
  2 17  2  0     0  0
  3 18  2  0     0  0
  4 19  2  0     0  0
  5  6  1  0     0  0
  5  9  1  0     0  0
  6 10  2  0     0  0
  7 11  1  0     0  0
  7 17  1  0     0  0
  7 18  1  0     0  0
  8 13  2  0     0  0
  8 14  1  0     0  0
  9 12  2  0     0  0
  9 17  1  0     0  0
 10 12  1  0     0  0
 10 19  1  0     0  0
 11 15  2  0     0  0
 11 16  1  0     0  0
 12 18  1  0     0  0
 13 15  1  0     0  0
 14 16  2  0     0  0
 19 20  1  0     0  0
 20 21  1  0     0  0
 21 22  1  0     0  0
 22 23  1  0     0  0
 23 24  1  0     0  0
 24 25  1  0     0  0
 25 26  1  0     0  0
 26 27  1  0     0  0
 27 28  1  0     0  0
 28 29  1  0     0  0
 29 30  1  0     0  0
 30 31  1  0     0  0
 31 32  1  0     0  0
 32 33  1  0     0  0
 33 34  1  0     0  0
 34 35  1  0     0  0
 35 36  1  0     0  0
M  END
> <standard_type>
IC50

> <# Confs.>
25

> <canonical_smiles>
O=C1C2=C(C(C(CCCCCCCCCCCCCCCCC)=O)=NN2)C(N1C3=CC=C(F)C=C3)=O

> <standard_relation>
=

> <predicted_activity_value>
6.173925197299173

> <actual_activity_value>
6.267606240177032

> <Compound>
7

> <publication_ID>
nan

> <standard_units>
nM

> hash
3683890307485763977

$$$$
7_
XXILIB    08252103493D 0   0.00000     0.00000

 36 38  0     1  0            999 V2000
  -16.1935   -0.1286    5.7394 F   0  0  0  0  0  1           0  0  0
  -10.3896   -0.0716    8.5854 O   0  0  0  0  0  2           0  0  0
  -10.0036   -0.0248    3.9011 O   0  0  0  0  0  2           0  0  0
   -6.9384   -0.0000    3.1127 O   0  0  0  0  0  2           0  0  0
   -7.3647   -0.0286    7.5720 N   0  0  0  0  0  3           0  0  0
   -6.4029   -0.0124    6.6183 N   0  0  0  0  0  3           0  0  0
  -10.6496   -0.0546    6.2069 N   0  0  2  0  0  3           0  0  0
  -14.8583   -0.1089    5.8527 C   0  0  0  0  0  4           0  0  0
   -8.6001   -0.0385    7.0394 C   0  0  0  0  0  4           0  0  0
   -7.0792   -0.0127    5.4470 C   0  0  0  0  0  4           0  0  0
  -12.0660   -0.0694    6.0891 C   0  0  0  0  0  4           0  0  0
   -8.4589   -0.0272    5.6868 C   0  0  0  0  0  4           0  0  0
  -14.0958    0.5144    4.8728 C   0  0  0  0  0  4           0  0  0
  -14.2541   -0.7116    6.9489 C   0  0  0  0  0  4           0  0  0
  -12.7041    0.5362    4.9917 C   0  0  0  0  0  4           0  0  0
  -12.8623   -0.6923    7.0668 C   0  0  0  0  0  4           0  0  0
   -9.9659   -0.0567    7.4411 C   0  0  0  0  0  4           0  0  0
   -9.7711   -0.0354    5.0986 C   0  0  0  0  0  4           0  0  0
   -6.3442   -0.0000    4.1907 C   0  0  0  0  0  4           0  0  0
   -4.8306    0.0000    4.2191 C   0  0  0  0  0  4           0  0  0
   -4.2380   -0.0000    2.8129 C   0  0  0  0  0  4           0  0  0
   -2.7117    0.0000    2.8129 C   0  0  0  0  0  4           0  0  0
   -2.1190   -0.0000    1.4064 C   0  0  0  0  0  4           0  0  0
   -0.5927    0.0000    1.4064 C   0  0  0  0  0  4           0  0  0
    0.0000   -0.0000    0.0000 C   0  0  0  0  0  4           0  0  0
    1.5260    0.0000    0.0000 C   0  0  0  0  0  4           0  0  0
    2.1188    0.0000   -1.4064 C   0  0  0  0  0  4           0  0  0
    3.6450    0.0000   -1.4064 C   0  0  0  0  0  4           0  0  0
    4.2378    0.0000   -2.8129 C   0  0  0  0  0  4           0  0  0
    5.7640    0.0000   -2.8129 C   0  0  0  0  0  4           0  0  0
    6.3567    0.0000   -4.2193 C   0  0  0  0  0  4           0  0  0
    7.8830    0.0000   -4.2193 C   0  0  0  0  0  4           0  0  0
    8.4757    0.0000   -5.6258 C   0  0  0  0  0  4           0  0  0
   10.0019    0.0000   -5.6258 C   0  0  0  0  0  4           0  0  0
   10.5947    0.0000   -7.0322 C   0  0  0  0  0  4           0  0  0
   10.1775    1.2147   -7.8480 C   0  0  0  0  0  4           0  0  0
  1  8  1  0     0  0
  2 17  2  0     0  0
  3 18  2  0     0  0
  4 19  2  0     0  0
  5  6  1  0     0  0
  5  9  1  0     0  0
  6 10  2  0     0  0
  7 11  1  0     0  0
  7 17  1  0     0  0
  7 18  1  0     0  0
  8 13  2  0     0  0
  8 14  1  0     0  0
  9 12  2  0     0  0
  9 17  1  0     0  0
 10 12  1  0     0  0
 10 19  1  0     0  0
 11 15  2  0     0  0
 11 16  1  0     0  0
 12 18  1  0     0  0
 13 15  1  0     0  0
 14 16  2  0     0  0
 19 20  1  0     0  0
 20 21  1  0     0  0
 21 22  1  0     0  0
 22 23  1  0     0  0
 23 24  1  0     0  0
 24 25  1  0     0  0
 25 26  1  0     0  0
 26 27  1  0     0  0
 27 28  1  0     0  0
 28 29  1  0     0  0
 29 30  1  0     0  0
 30 31  1  0     0  0
 31 32  1  0     0  0
 32 33  1  0     0  0
 33 34  1  0     0  0
 34 35  1  0     0  0
 35 36  1  0     0  0
M  END
> <standard_type>
IC50

> <# Confs.>
25

> <canonical_smiles>
O=C1C2=C(C(C(CCCCCCCCCCCCCCCCC)=O)=NN2)C(N1C3=CC=C(F)C=C3)=O

> <standard_relation>
=

> <predicted_activity_value>
6.173925197299173

> <actual_activity_value>
6.267606240177032

> <Compound>
7

> <publication_ID>
nan

> <standard_units>
nM

> hash
3683890307485763977

$$$$
7_
XXILIB    08252103493D 0   0.00000     0.00000

 36 38  0     1  0            999 V2000
    1.2757   11.0436   13.0973 F   0  0  0  0  0  1           0  0  0
   -1.8216    5.4397   12.1964 O   0  0  0  0  0  2           0  0  0
    0.6246    6.6837    8.3803 O   0  0  0  0  0  2           0  0  0
    0.2285    4.4903    6.1332 O   0  0  0  0  0  2           0  0  0
   -2.0715    3.3450    9.8028 N   0  0  0  0  0  3           0  0  0
   -1.8098    2.8901    8.5540 N   0  0  0  0  0  3           0  0  0
   -0.4601    6.4386   10.5012 N   0  0  2  0  0  3           0  0  0
    0.8558    9.9349   12.4725 C   0  0  0  0  0  4           0  0  0
   -1.4553    4.5150   10.0506 C   0  0  0  0  0  4           0  0  0
   -0.9961    3.8239    8.0106 C   0  0  0  0  0  4           0  0  0
   -0.0209    7.6160   11.1654 C   0  0  0  0  0  4           0  0  0
   -0.7587    4.8515    8.9320 C   0  0  0  0  0  4           0  0  0
    0.5789    8.7929   13.2136 C   0  0  0  0  0  4           0  0  0
    0.7021    9.9422   11.0918 C   0  0  0  0  0  4           0  0  0
    0.1398    7.6377   12.5625 C   0  0  0  0  0  4           0  0  0
    0.2655    8.7864   10.4400 C   0  0  0  0  0  4           0  0  0
   -1.3115    5.4790   11.0885 C   0  0  0  0  0  4           0  0  0
   -0.0903    6.1007    9.1785 C   0  0  0  0  0  4           0  0  0
   -0.5128    3.6536    6.6483 C   0  0  0  0  0  4           0  0  0
   -0.9425    2.4360    5.8578 C   0  0  0  0  0  4           0  0  0
   -0.3498    2.4360    4.4515 C   0  0  0  0  0  4           0  0  0
   -0.7676    1.2180    3.6322 C   0  0  0  0  0  4           0  0  0
   -0.1749    1.2180    2.2258 C   0  0  0  0  0  4           0  0  0
   -0.5927    0.0000    1.4064 C   0  0  0  0  0  4           0  0  0
    0.0000    0.0000    0.0000 C   0  0  0  0  0  4           0  0  0
    1.5260    0.0000    0.0000 C   0  0  0  0  0  4           0  0  0
    2.1188    0.0000   -1.4064 C   0  0  0  0  0  4           0  0  0
    3.6450    0.0000   -1.4064 C   0  0  0  0  0  4           0  0  0
    4.2378    0.0000   -2.8129 C   0  0  0  0  0  4           0  0  0
    5.7640    0.0000   -2.8129 C   0  0  0  0  0  4           0  0  0
    6.3567    0.0000   -4.2193 C   0  0  0  0  0  4           0  0  0
    7.8830    0.0000   -4.2193 C   0  0  0  0  0  4           0  0  0
    8.4757    0.0000   -5.6258 C   0  0  0  0  0  4           0  0  0
   10.0019    0.0000   -5.6258 C   0  0  0  0  0  4           0  0  0
   10.5947    0.0000   -7.0322 C   0  0  0  0  0  4           0  0  0
   12.1162    0.0000   -7.0310 C   0  0  0  0  0  4           0  0  0
  1  8  1  0     0  0
  2 17  2  0     0  0
  3 18  2  0     0  0
  4 19  2  0     0  0
  5  6  1  0     0  0
  5  9  1  0     0  0
  6 10  2  0     0  0
  7 11  1  0     0  0
  7 17  1  0     0  0
  7 18  1  0     0  0
  8 13  2  0     0  0
  8 14  1  0     0  0
  9 12  2  0     0  0
  9 17  1  0     0  0
 10 12  1  0     0  0
 10 19  1  0     0  0
 11 15  2  0     0  0
 11 16  1  0     0  0
 12 18  1  0     0  0
 13 15  1  0     0  0
 14 16  2  0     0  0
 19 20  1  0     0  0
 20 21  1  0     0  0
 21 22  1  0     0  0
 22 23  1  0     0  0
 23 24  1  0     0  0
 24 25  1  0     0  0
 25 26  1  0     0  0
 26 27  1  0     0  0
 27 28  1  0     0  0
 28 29  1  0     0  0
 29 30  1  0     0  0
 30 31  1  0     0  0
 31 32  1  0     0  0
 32 33  1  0     0  0
 33 34  1  0     0  0
 34 35  1  0     0  0
 35 36  1  0     0  0
M  END
> <standard_type>
IC50

> <# Confs.>
25

> <canonical_smiles>
O=C1C2=C(C(C(CCCCCCCCCCCCCCCCC)=O)=NN2)C(N1C3=CC=C(F)C=C3)=O

> <standard_relation>
=

> <predicted_activity_value>
6.173925197299173

> <actual_activity_value>
6.267606240177032

> <Compound>
7

> <publication_ID>
nan

> <standard_units>
nM

> hash
3683890307485763977

$$$$
7_
XXILIB    08252103493D 0   0.00000     0.00000

 36 38  0     1  0            999 V2000
  -16.1934   -0.0987    5.7351 F   0  0  0  0  0  1           0  0  0
  -10.3896   -0.0716    8.5854 O   0  0  0  0  0  2           0  0  0
  -10.0036   -0.0248    3.9011 O   0  0  0  0  0  2           0  0  0
   -6.9384   -0.0000    3.1127 O   0  0  0  0  0  2           0  0  0
   -7.3647   -0.0286    7.5720 N   0  0  0  0  0  3           0  0  0
   -6.4029   -0.0124    6.6183 N   0  0  0  0  0  3           0  0  0
  -10.6496   -0.0546    6.2069 N   0  0  2  0  0  3           0  0  0
  -14.8582   -0.0896    5.8499 C   0  0  0  0  0  4           0  0  0
   -8.6001   -0.0385    7.0394 C   0  0  0  0  0  4           0  0  0
   -7.0792   -0.0127    5.4470 C   0  0  0  0  0  4           0  0  0
  -12.0660   -0.0694    6.0891 C   0  0  0  0  0  4           0  0  0
   -8.4589   -0.0272    5.6868 C   0  0  0  0  0  4           0  0  0
  -14.2690    0.5097    6.9561 C   0  0  0  0  0  4           0  0  0
  -14.0809   -0.6802    4.8617 C   0  0  0  0  0  4           0  0  0
  -12.8773    0.5179    7.0765 C   0  0  0  0  0  4           0  0  0
  -12.6890   -0.6700    4.9804 C   0  0  0  0  0  4           0  0  0
   -9.9659   -0.0567    7.4411 C   0  0  0  0  0  4           0  0  0
   -9.7711   -0.0354    5.0986 C   0  0  0  0  0  4           0  0  0
   -6.3442   -0.0000    4.1907 C   0  0  0  0  0  4           0  0  0
   -4.8306    0.0000    4.2191 C   0  0  0  0  0  4           0  0  0
   -4.2380   -0.0000    2.8129 C   0  0  0  0  0  4           0  0  0
   -2.7117    0.0000    2.8129 C   0  0  0  0  0  4           0  0  0
   -2.1190   -0.0000    1.4064 C   0  0  0  0  0  4           0  0  0
   -0.5927    0.0000    1.4064 C   0  0  0  0  0  4           0  0  0
    0.0000   -0.0000    0.0000 C   0  0  0  0  0  4           0  0  0
    1.5260   -0.0000    0.0000 C   0  0  0  0  0  4           0  0  0
    2.1188    0.0000   -1.4064 C   0  0  0  0  0  4           0  0  0
    3.6450    0.0000   -1.4064 C   0  0  0  0  0  4           0  0  0
    4.2378   -1.2180   -0.7032 C   0  0  0  0  0  4           0  0  0
    5.7640   -1.2180   -0.7032 C   0  0  0  0  0  4           0  0  0
    6.3567   -2.4360    0.0000 C   0  0  0  0  0  4           0  0  0
    7.8830   -2.4360    0.0000 C   0  0  0  0  0  4           0  0  0
    8.4757   -3.6540    0.7032 C   0  0  0  0  0  4           0  0  0
   10.0019   -3.6540    0.7032 C   0  0  0  0  0  4           0  0  0
   10.5947   -4.8721    1.4064 C   0  0  0  0  0  4           0  0  0
   12.1162   -4.8710    1.4058 C   0  0  0  0  0  4           0  0  0
  1  8  1  0     0  0
  2 17  2  0     0  0
  3 18  2  0     0  0
  4 19  2  0     0  0
  5  6  1  0     0  0
  5  9  1  0     0  0
  6 10  2  0     0  0
  7 11  1  0     0  0
  7 17  1  0     0  0
  7 18  1  0     0  0
  8 13  2  0     0  0
  8 14  1  0     0  0
  9 12  2  0     0  0
  9 17  1  0     0  0
 10 12  1  0     0  0
 10 19  1  0     0  0
 11 15  2  0     0  0
 11 16  1  0     0  0
 12 18  1  0     0  0
 13 15  1  0     0  0
 14 16  2  0     0  0
 19 20  1  0     0  0
 20 21  1  0     0  0
 21 22  1  0     0  0
 22 23  1  0     0  0
 23 24  1  0     0  0
 24 25  1  0     0  0
 25 26  1  0     0  0
 26 27  1  0     0  0
 27 28  1  0     0  0
 28 29  1  0     0  0
 29 30  1  0     0  0
 30 31  1  0     0  0
 31 32  1  0     0  0
 32 33  1  0     0  0
 33 34  1  0     0  0
 34 35  1  0     0  0
 35 36  1  0     0  0
M  END
> <standard_type>
IC50

> <# Confs.>
25

> <canonical_smiles>
O=C1C2=C(C(C(CCCCCCCCCCCCCCCCC)=O)=NN2)C(N1C3=CC=C(F)C=C3)=O

> <standard_relation>
=

> <predicted_activity_value>
6.173925197299173

> <actual_activity_value>
6.267606240177032

> <Compound>
7

> <publication_ID>
nan

> <standard_units>
nM

> hash
3683890307485763977

$$$$
7_
XXILIB    08252103493D 0   0.00000     0.00000

 36 38  0     1  0            999 V2000
  -16.1934   -0.0987    5.7351 F   0  0  0  0  0  1           0  0  0
  -10.3896   -0.0716    8.5854 O   0  0  0  0  0  2           0  0  0
  -10.0036   -0.0248    3.9011 O   0  0  0  0  0  2           0  0  0
   -6.9384   -0.0000    3.1127 O   0  0  0  0  0  2           0  0  0
   -7.3647   -0.0286    7.5720 N   0  0  0  0  0  3           0  0  0
   -6.4029   -0.0124    6.6183 N   0  0  0  0  0  3           0  0  0
  -10.6496   -0.0546    6.2069 N   0  0  2  0  0  3           0  0  0
  -14.8582   -0.0896    5.8499 C   0  0  0  0  0  4           0  0  0
   -8.6001   -0.0385    7.0394 C   0  0  0  0  0  4           0  0  0
   -7.0792   -0.0127    5.4470 C   0  0  0  0  0  4           0  0  0
  -12.0660   -0.0694    6.0891 C   0  0  0  0  0  4           0  0  0
   -8.4589   -0.0272    5.6868 C   0  0  0  0  0  4           0  0  0
  -14.2690    0.5097    6.9561 C   0  0  0  0  0  4           0  0  0
  -14.0809   -0.6802    4.8617 C   0  0  0  0  0  4           0  0  0
  -12.8773    0.5179    7.0765 C   0  0  0  0  0  4           0  0  0
  -12.6890   -0.6700    4.9804 C   0  0  0  0  0  4           0  0  0
   -9.9659   -0.0567    7.4411 C   0  0  0  0  0  4           0  0  0
   -9.7711   -0.0354    5.0986 C   0  0  0  0  0  4           0  0  0
   -6.3442   -0.0000    4.1907 C   0  0  0  0  0  4           0  0  0
   -4.8306    0.0000    4.2191 C   0  0  0  0  0  4           0  0  0
   -4.2380   -0.0000    2.8129 C   0  0  0  0  0  4           0  0  0
   -2.7117    0.0000    2.8129 C   0  0  0  0  0  4           0  0  0
   -2.1190   -0.0000    1.4064 C   0  0  0  0  0  4           0  0  0
   -0.5927    0.0000    1.4064 C   0  0  0  0  0  4           0  0  0
    0.0000   -0.0000    0.0000 C   0  0  0  0  0  4           0  0  0
    1.5260   -0.0000   -0.0000 C   0  0  0  0  0  4           0  0  0
    2.1188    0.0000   -1.4064 C   0  0  0  0  0  4           0  0  0
    3.6450   -0.0000   -1.4064 C   0  0  0  0  0  4           0  0  0
    4.2378    0.0000   -2.8129 C   0  0  0  0  0  4           0  0  0
    3.8199    1.2180   -3.6322 C   0  0  0  0  0  4           0  0  0
    4.4127    1.2180   -5.0386 C   0  0  0  0  0  4           0  0  0
    3.9948    2.4360   -5.8580 C   0  0  0  0  0  4           0  0  0
    4.5876    2.4360   -7.2644 C   0  0  0  0  0  4           0  0  0
    4.1697    3.6540   -8.0837 C   0  0  0  0  0  4           0  0  0
    4.7625    3.6540   -9.4902 C   0  0  0  0  0  4           0  0  0
    4.3453    4.8687  -10.3060 C   0  0  0  0  0  4           0  0  0
  1  8  1  0     0  0
  2 17  2  0     0  0
  3 18  2  0     0  0
  4 19  2  0     0  0
  5  6  1  0     0  0
  5  9  1  0     0  0
  6 10  2  0     0  0
  7 11  1  0     0  0
  7 17  1  0     0  0
  7 18  1  0     0  0
  8 13  2  0     0  0
  8 14  1  0     0  0
  9 12  2  0     0  0
  9 17  1  0     0  0
 10 12  1  0     0  0
 10 19  1  0     0  0
 11 15  2  0     0  0
 11 16  1  0     0  0
 12 18  1  0     0  0
 13 15  1  0     0  0
 14 16  2  0     0  0
 19 20  1  0     0  0
 20 21  1  0     0  0
 21 22  1  0     0  0
 22 23  1  0     0  0
 23 24  1  0     0  0
 24 25  1  0     0  0
 25 26  1  0     0  0
 26 27  1  0     0  0
 27 28  1  0     0  0
 28 29  1  0     0  0
 29 30  1  0     0  0
 30 31  1  0     0  0
 31 32  1  0     0  0
 32 33  1  0     0  0
 33 34  1  0     0  0
 34 35  1  0     0  0
 35 36  1  0     0  0
M  END
> <standard_type>
IC50

> <# Confs.>
25

> <canonical_smiles>
O=C1C2=C(C(C(CCCCCCCCCCCCCCCCC)=O)=NN2)C(N1C3=CC=C(F)C=C3)=O

> <standard_relation>
=

> <predicted_activity_value>
6.173925197299173

> <actual_activity_value>
6.267606240177032

> <Compound>
7

> <publication_ID>
nan

> <standard_units>
nM

> hash
3683890307485763977

$$$$
7_
XXILIB    08252103493D 0   0.00000     0.00000

 36 38  0     1  0            999 V2000
  -16.1934   -0.0987    5.7351 F   0  0  0  0  0  1           0  0  0
  -10.3896   -0.0716    8.5854 O   0  0  0  0  0  2           0  0  0
  -10.0036   -0.0248    3.9011 O   0  0  0  0  0  2           0  0  0
   -6.9384   -0.0000    3.1127 O   0  0  0  0  0  2           0  0  0
   -7.3647   -0.0286    7.5720 N   0  0  0  0  0  3           0  0  0
   -6.4029   -0.0124    6.6183 N   0  0  0  0  0  3           0  0  0
  -10.6496   -0.0546    6.2069 N   0  0  2  0  0  3           0  0  0
  -14.8582   -0.0896    5.8499 C   0  0  0  0  0  4           0  0  0
   -8.6001   -0.0385    7.0394 C   0  0  0  0  0  4           0  0  0
   -7.0792   -0.0127    5.4470 C   0  0  0  0  0  4           0  0  0
  -12.0660   -0.0694    6.0891 C   0  0  0  0  0  4           0  0  0
   -8.4589   -0.0272    5.6868 C   0  0  0  0  0  4           0  0  0
  -14.2690    0.5097    6.9561 C   0  0  0  0  0  4           0  0  0
  -14.0809   -0.6802    4.8617 C   0  0  0  0  0  4           0  0  0
  -12.8773    0.5179    7.0765 C   0  0  0  0  0  4           0  0  0
  -12.6890   -0.6700    4.9804 C   0  0  0  0  0  4           0  0  0
   -9.9659   -0.0567    7.4411 C   0  0  0  0  0  4           0  0  0
   -9.7711   -0.0354    5.0986 C   0  0  0  0  0  4           0  0  0
   -6.3442   -0.0000    4.1907 C   0  0  0  0  0  4           0  0  0
   -4.8306    0.0000    4.2191 C   0  0  0  0  0  4           0  0  0
   -4.2380   -0.0000    2.8129 C   0  0  0  0  0  4           0  0  0
   -2.7117    0.0000    2.8129 C   0  0  0  0  0  4           0  0  0
   -2.1190   -0.0000    1.4064 C   0  0  0  0  0  4           0  0  0
   -0.5927    0.0000    1.4064 C   0  0  0  0  0  4           0  0  0
    0.0000   -0.0000    0.0000 C   0  0  0  0  0  4           0  0  0
    1.5260   -0.0000    0.0000 C   0  0  0  0  0  4           0  0  0
    2.1188    0.0000   -1.4064 C   0  0  0  0  0  4           0  0  0
    1.7009    1.2180   -2.2258 C   0  0  0  0  0  4           0  0  0
    2.2937    1.2180   -3.6322 C   0  0  0  0  0  4           0  0  0
    1.8759    2.4360   -4.4515 C   0  0  0  0  0  4           0  0  0
    2.4686    2.4360   -5.8580 C   0  0  0  0  0  4           0  0  0
    2.0508    3.6540   -6.6773 C   0  0  0  0  0  4           0  0  0
    2.6435    3.6540   -8.0837 C   0  0  0  0  0  4           0  0  0
    2.2257    4.8721   -8.9030 C   0  0  0  0  0  4           0  0  0
    2.8184    4.8721  -10.3095 C   0  0  0  0  0  4           0  0  0
    2.4012    6.0867  -11.1253 C   0  0  0  0  0  4           0  0  0
  1  8  1  0     0  0
  2 17  2  0     0  0
  3 18  2  0     0  0
  4 19  2  0     0  0
  5  6  1  0     0  0
  5  9  1  0     0  0
  6 10  2  0     0  0
  7 11  1  0     0  0
  7 17  1  0     0  0
  7 18  1  0     0  0
  8 13  2  0     0  0
  8 14  1  0     0  0
  9 12  2  0     0  0
  9 17  1  0     0  0
 10 12  1  0     0  0
 10 19  1  0     0  0
 11 15  2  0     0  0
 11 16  1  0     0  0
 12 18  1  0     0  0
 13 15  1  0     0  0
 14 16  2  0     0  0
 19 20  1  0     0  0
 20 21  1  0     0  0
 21 22  1  0     0  0
 22 23  1  0     0  0
 23 24  1  0     0  0
 24 25  1  0     0  0
 25 26  1  0     0  0
 26 27  1  0     0  0
 27 28  1  0     0  0
 28 29  1  0     0  0
 29 30  1  0     0  0
 30 31  1  0     0  0
 31 32  1  0     0  0
 32 33  1  0     0  0
 33 34  1  0     0  0
 34 35  1  0     0  0
 35 36  1  0     0  0
M  END
> <standard_type>
IC50

> <# Confs.>
25

> <canonical_smiles>
O=C1C2=C(C(C(CCCCCCCCCCCCCCCCC)=O)=NN2)C(N1C3=CC=C(F)C=C3)=O

> <standard_relation>
=

> <predicted_activity_value>
6.173925197299173

> <actual_activity_value>
6.267606240177032

> <Compound>
7

> <publication_ID>
nan

> <standard_units>
nM

> hash
3683890307485763977

$$$$
7_
XXILIB    08252103493D 0   0.00000     0.00000

 36 38  0     1  0            999 V2000
  -16.1934   -0.0987    5.7351 F   0  0  0  0  0  1           0  0  0
  -10.3896   -0.0716    8.5854 O   0  0  0  0  0  2           0  0  0
  -10.0036   -0.0248    3.9011 O   0  0  0  0  0  2           0  0  0
   -6.9384   -0.0000    3.1127 O   0  0  0  0  0  2           0  0  0
   -7.3647   -0.0286    7.5720 N   0  0  0  0  0  3           0  0  0
   -6.4029   -0.0124    6.6183 N   0  0  0  0  0  3           0  0  0
  -10.6496   -0.0546    6.2069 N   0  0  2  0  0  3           0  0  0
  -14.8582   -0.0896    5.8499 C   0  0  0  0  0  4           0  0  0
   -8.6001   -0.0385    7.0394 C   0  0  0  0  0  4           0  0  0
   -7.0792   -0.0127    5.4470 C   0  0  0  0  0  4           0  0  0
  -12.0660   -0.0694    6.0891 C   0  0  0  0  0  4           0  0  0
   -8.4589   -0.0272    5.6868 C   0  0  0  0  0  4           0  0  0
  -14.2690    0.5097    6.9561 C   0  0  0  0  0  4           0  0  0
  -14.0809   -0.6802    4.8617 C   0  0  0  0  0  4           0  0  0
  -12.8773    0.5179    7.0765 C   0  0  0  0  0  4           0  0  0
  -12.6890   -0.6700    4.9804 C   0  0  0  0  0  4           0  0  0
   -9.9659   -0.0567    7.4411 C   0  0  0  0  0  4           0  0  0
   -9.7711   -0.0354    5.0986 C   0  0  0  0  0  4           0  0  0
   -6.3442   -0.0000    4.1907 C   0  0  0  0  0  4           0  0  0
   -4.8306    0.0000    4.2191 C   0  0  0  0  0  4           0  0  0
   -4.2380   -0.0000    2.8129 C   0  0  0  0  0  4           0  0  0
   -2.7117    0.0000    2.8129 C   0  0  0  0  0  4           0  0  0
   -2.1190   -0.0000    1.4064 C   0  0  0  0  0  4           0  0  0
   -0.5927    0.0000    1.4064 C   0  0  0  0  0  4           0  0  0
    0.0000   -0.0000    0.0000 C   0  0  0  0  0  4           0  0  0
    1.5260    0.0000   -0.0000 C   0  0  0  0  0  4           0  0  0
    2.1188   -1.2180    0.7032 C   0  0  0  0  0  4           0  0  0
    3.6450   -1.2180    0.7032 C   0  0  0  0  0  4           0  0  0
    4.2378   -2.4360    1.4064 C   0  0  0  0  0  4           0  0  0
    5.7640   -2.4360    1.4064 C   0  0  0  0  0  4           0  0  0
    6.3567   -3.6540    2.1097 C   0  0  0  0  0  4           0  0  0
    7.8830   -3.6540    2.1097 C   0  0  0  0  0  4           0  0  0
    8.4757   -4.8721    2.8129 C   0  0  0  0  0  4           0  0  0
   10.0019   -4.8721    2.8129 C   0  0  0  0  0  4           0  0  0
   10.5947   -6.0901    3.5161 C   0  0  0  0  0  4           0  0  0
   12.1162   -6.0890    3.5155 C   0  0  0  0  0  4           0  0  0
  1  8  1  0     0  0
  2 17  2  0     0  0
  3 18  2  0     0  0
  4 19  2  0     0  0
  5  6  1  0     0  0
  5  9  1  0     0  0
  6 10  2  0     0  0
  7 11  1  0     0  0
  7 17  1  0     0  0
  7 18  1  0     0  0
  8 13  2  0     0  0
  8 14  1  0     0  0
  9 12  2  0     0  0
  9 17  1  0     0  0
 10 12  1  0     0  0
 10 19  1  0     0  0
 11 15  2  0     0  0
 11 16  1  0     0  0
 12 18  1  0     0  0
 13 15  1  0     0  0
 14 16  2  0     0  0
 19 20  1  0     0  0
 20 21  1  0     0  0
 21 22  1  0     0  0
 22 23  1  0     0  0
 23 24  1  0     0  0
 24 25  1  0     0  0
 25 26  1  0     0  0
 26 27  1  0     0  0
 27 28  1  0     0  0
 28 29  1  0     0  0
 29 30  1  0     0  0
 30 31  1  0     0  0
 31 32  1  0     0  0
 32 33  1  0     0  0
 33 34  1  0     0  0
 34 35  1  0     0  0
 35 36  1  0     0  0
M  END
> <standard_type>
IC50

> <# Confs.>
25

> <canonical_smiles>
O=C1C2=C(C(C(CCCCCCCCCCCCCCCCC)=O)=NN2)C(N1C3=CC=C(F)C=C3)=O

> <standard_relation>
=

> <predicted_activity_value>
6.173925197299173

> <actual_activity_value>
6.267606240177032

> <Compound>
7

> <publication_ID>
nan

> <standard_units>
nM

> hash
3683890307485763977

$$$$
7_
XXILIB    08252103493D 0   0.00000     0.00000

 36 38  0     1  0            999 V2000
  -16.1934   -0.0987    5.7351 F   0  0  0  0  0  1           0  0  0
  -10.3896   -0.0716    8.5854 O   0  0  0  0  0  2           0  0  0
  -10.0036   -0.0248    3.9011 O   0  0  0  0  0  2           0  0  0
   -6.9384   -0.0000    3.1127 O   0  0  0  0  0  2           0  0  0
   -7.3647   -0.0286    7.5720 N   0  0  0  0  0  3           0  0  0
   -6.4029   -0.0124    6.6183 N   0  0  0  0  0  3           0  0  0
  -10.6496   -0.0546    6.2069 N   0  0  2  0  0  3           0  0  0
  -14.8582   -0.0896    5.8499 C   0  0  0  0  0  4           0  0  0
   -8.6001   -0.0385    7.0394 C   0  0  0  0  0  4           0  0  0
   -7.0792   -0.0127    5.4470 C   0  0  0  0  0  4           0  0  0
  -12.0660   -0.0694    6.0891 C   0  0  0  0  0  4           0  0  0
   -8.4589   -0.0272    5.6868 C   0  0  0  0  0  4           0  0  0
  -14.2690    0.5097    6.9561 C   0  0  0  0  0  4           0  0  0
  -14.0809   -0.6802    4.8617 C   0  0  0  0  0  4           0  0  0
  -12.8773    0.5179    7.0765 C   0  0  0  0  0  4           0  0  0
  -12.6890   -0.6700    4.9804 C   0  0  0  0  0  4           0  0  0
   -9.9659   -0.0567    7.4411 C   0  0  0  0  0  4           0  0  0
   -9.7711   -0.0354    5.0986 C   0  0  0  0  0  4           0  0  0
   -6.3442   -0.0000    4.1907 C   0  0  0  0  0  4           0  0  0
   -4.8306    0.0000    4.2191 C   0  0  0  0  0  4           0  0  0
   -4.2380   -0.0000    2.8129 C   0  0  0  0  0  4           0  0  0
   -2.7117    0.0000    2.8129 C   0  0  0  0  0  4           0  0  0
   -2.1190   -0.0000    1.4064 C   0  0  0  0  0  4           0  0  0
   -0.5927    0.0000    1.4064 C   0  0  0  0  0  4           0  0  0
    0.0000   -0.0000    0.0000 C   0  0  0  0  0  4           0  0  0
    1.5260    0.0000    0.0000 C   0  0  0  0  0  4           0  0  0
    2.1188    0.0000   -1.4064 C   0  0  0  0  0  4           0  0  0
    3.6450   -0.0000   -1.4064 C   0  0  0  0  0  4           0  0  0
    4.2378   -0.0000   -2.8129 C   0  0  0  0  0  4           0  0  0
    5.7640   -0.0000   -2.8129 C   0  0  0  0  0  4           0  0  0
    6.3567   -1.2180   -2.1097 C   0  0  0  0  0  4           0  0  0
    7.8830   -1.2180   -2.1097 C   0  0  0  0  0  4           0  0  0
    8.4757   -2.4360   -1.4064 C   0  0  0  0  0  4           0  0  0
   10.0019   -2.4360   -1.4064 C   0  0  0  0  0  4           0  0  0
   10.5947   -3.6540   -0.7032 C   0  0  0  0  0  4           0  0  0
   12.1162   -3.6530   -0.7039 C   0  0  0  0  0  4           0  0  0
  1  8  1  0     0  0
  2 17  2  0     0  0
  3 18  2  0     0  0
  4 19  2  0     0  0
  5  6  1  0     0  0
  5  9  1  0     0  0
  6 10  2  0     0  0
  7 11  1  0     0  0
  7 17  1  0     0  0
  7 18  1  0     0  0
  8 13  2  0     0  0
  8 14  1  0     0  0
  9 12  2  0     0  0
  9 17  1  0     0  0
 10 12  1  0     0  0
 10 19  1  0     0  0
 11 15  2  0     0  0
 11 16  1  0     0  0
 12 18  1  0     0  0
 13 15  1  0     0  0
 14 16  2  0     0  0
 19 20  1  0     0  0
 20 21  1  0     0  0
 21 22  1  0     0  0
 22 23  1  0     0  0
 23 24  1  0     0  0
 24 25  1  0     0  0
 25 26  1  0     0  0
 26 27  1  0     0  0
 27 28  1  0     0  0
 28 29  1  0     0  0
 29 30  1  0     0  0
 30 31  1  0     0  0
 31 32  1  0     0  0
 32 33  1  0     0  0
 33 34  1  0     0  0
 34 35  1  0     0  0
 35 36  1  0     0  0
M  END
> <standard_type>
IC50

> <# Confs.>
25

> <canonical_smiles>
O=C1C2=C(C(C(CCCCCCCCCCCCCCCCC)=O)=NN2)C(N1C3=CC=C(F)C=C3)=O

> <standard_relation>
=

> <predicted_activity_value>
6.173925197299173

> <actual_activity_value>
6.267606240177032

> <Compound>
7

> <publication_ID>
nan

> <standard_units>
nM

> hash
3683890307485763977

$$$$
7_
XXILIB    08252103493D 0   0.00000     0.00000

 36 38  0     1  0            999 V2000
  -16.1934   -0.0987    5.7351 F   0  0  0  0  0  1           0  0  0
  -10.3896   -0.0716    8.5854 O   0  0  0  0  0  2           0  0  0
  -10.0036   -0.0248    3.9011 O   0  0  0  0  0  2           0  0  0
   -6.9384   -0.0000    3.1127 O   0  0  0  0  0  2           0  0  0
   -7.3647   -0.0286    7.5720 N   0  0  0  0  0  3           0  0  0
   -6.4029   -0.0124    6.6183 N   0  0  0  0  0  3           0  0  0
  -10.6496   -0.0546    6.2069 N   0  0  2  0  0  3           0  0  0
  -14.8582   -0.0896    5.8499 C   0  0  0  0  0  4           0  0  0
   -8.6001   -0.0385    7.0394 C   0  0  0  0  0  4           0  0  0
   -7.0792   -0.0127    5.4470 C   0  0  0  0  0  4           0  0  0
  -12.0660   -0.0694    6.0891 C   0  0  0  0  0  4           0  0  0
   -8.4589   -0.0272    5.6868 C   0  0  0  0  0  4           0  0  0
  -14.2690    0.5097    6.9561 C   0  0  0  0  0  4           0  0  0
  -14.0809   -0.6802    4.8617 C   0  0  0  0  0  4           0  0  0
  -12.8773    0.5179    7.0765 C   0  0  0  0  0  4           0  0  0
  -12.6890   -0.6700    4.9804 C   0  0  0  0  0  4           0  0  0
   -9.9659   -0.0567    7.4411 C   0  0  0  0  0  4           0  0  0
   -9.7711   -0.0354    5.0986 C   0  0  0  0  0  4           0  0  0
   -6.3442   -0.0000    4.1907 C   0  0  0  0  0  4           0  0  0
   -4.8306    0.0000    4.2191 C   0  0  0  0  0  4           0  0  0
   -4.2380   -0.0000    2.8129 C   0  0  0  0  0  4           0  0  0
   -2.7117    0.0000    2.8129 C   0  0  0  0  0  4           0  0  0
   -2.1190   -0.0000    1.4064 C   0  0  0  0  0  4           0  0  0
   -0.5927    0.0000    1.4064 C   0  0  0  0  0  4           0  0  0
    0.0000   -0.0000    0.0000 C   0  0  0  0  0  4           0  0  0
    1.5260    0.0000    0.0000 C   0  0  0  0  0  4           0  0  0
    2.1188    0.0000   -1.4064 C   0  0  0  0  0  4           0  0  0
    3.6450    0.0000   -1.4064 C   0  0  0  0  0  4           0  0  0
    4.2378    0.0000   -2.8129 C   0  0  0  0  0  4           0  0  0
    5.7640    0.0000   -2.8129 C   0  0  0  0  0  4           0  0  0
    6.3567    0.0000   -4.2193 C   0  0  0  0  0  4           0  0  0
    5.9389    1.2180   -5.0386 C   0  0  0  0  0  4           0  0  0
    6.5316    1.2180   -6.4451 C   0  0  0  0  0  4           0  0  0
    6.1138    2.4360   -7.2644 C   0  0  0  0  0  4           0  0  0
    6.7065    2.4360   -8.6708 C   0  0  0  0  0  4           0  0  0
    6.2893    3.6507   -9.4866 C   0  0  0  0  0  4           0  0  0
  1  8  1  0     0  0
  2 17  2  0     0  0
  3 18  2  0     0  0
  4 19  2  0     0  0
  5  6  1  0     0  0
  5  9  1  0     0  0
  6 10  2  0     0  0
  7 11  1  0     0  0
  7 17  1  0     0  0
  7 18  1  0     0  0
  8 13  2  0     0  0
  8 14  1  0     0  0
  9 12  2  0     0  0
  9 17  1  0     0  0
 10 12  1  0     0  0
 10 19  1  0     0  0
 11 15  2  0     0  0
 11 16  1  0     0  0
 12 18  1  0     0  0
 13 15  1  0     0  0
 14 16  2  0     0  0
 19 20  1  0     0  0
 20 21  1  0     0  0
 21 22  1  0     0  0
 22 23  1  0     0  0
 23 24  1  0     0  0
 24 25  1  0     0  0
 25 26  1  0     0  0
 26 27  1  0     0  0
 27 28  1  0     0  0
 28 29  1  0     0  0
 29 30  1  0     0  0
 30 31  1  0     0  0
 31 32  1  0     0  0
 32 33  1  0     0  0
 33 34  1  0     0  0
 34 35  1  0     0  0
 35 36  1  0     0  0
M  END
> <standard_type>
IC50

> <# Confs.>
25

> <canonical_smiles>
O=C1C2=C(C(C(CCCCCCCCCCCCCCCCC)=O)=NN2)C(N1C3=CC=C(F)C=C3)=O

> <standard_relation>
=

> <predicted_activity_value>
6.173925197299173

> <actual_activity_value>
6.267606240177032

> <Compound>
7

> <publication_ID>
nan

> <standard_units>
nM

> hash
3683890307485763977

$$$$
7_
XXILIB    08252103493D 0   0.00000     0.00000

 36 38  0     1  0            999 V2000
  -16.1934   -0.0987    5.7351 F   0  0  0  0  0  1           0  0  0
  -10.3896   -0.0716    8.5854 O   0  0  0  0  0  2           0  0  0
  -10.0036   -0.0248    3.9011 O   0  0  0  0  0  2           0  0  0
   -6.9384   -0.0000    3.1127 O   0  0  0  0  0  2           0  0  0
   -7.3647   -0.0286    7.5720 N   0  0  0  0  0  3           0  0  0
   -6.4029   -0.0124    6.6183 N   0  0  0  0  0  3           0  0  0
  -10.6496   -0.0546    6.2069 N   0  0  2  0  0  3           0  0  0
  -14.8582   -0.0896    5.8499 C   0  0  0  0  0  4           0  0  0
   -8.6001   -0.0385    7.0394 C   0  0  0  0  0  4           0  0  0
   -7.0792   -0.0127    5.4470 C   0  0  0  0  0  4           0  0  0
  -12.0660   -0.0694    6.0891 C   0  0  0  0  0  4           0  0  0
   -8.4589   -0.0272    5.6868 C   0  0  0  0  0  4           0  0  0
  -14.2690    0.5097    6.9561 C   0  0  0  0  0  4           0  0  0
  -14.0809   -0.6802    4.8617 C   0  0  0  0  0  4           0  0  0
  -12.8773    0.5179    7.0765 C   0  0  0  0  0  4           0  0  0
  -12.6890   -0.6700    4.9804 C   0  0  0  0  0  4           0  0  0
   -9.9659   -0.0567    7.4411 C   0  0  0  0  0  4           0  0  0
   -9.7711   -0.0354    5.0986 C   0  0  0  0  0  4           0  0  0
   -6.3442   -0.0000    4.1907 C   0  0  0  0  0  4           0  0  0
   -4.8306    0.0000    4.2191 C   0  0  0  0  0  4           0  0  0
   -4.2380   -0.0000    2.8129 C   0  0  0  0  0  4           0  0  0
   -2.7117    0.0000    2.8129 C   0  0  0  0  0  4           0  0  0
   -2.1190   -0.0000    1.4064 C   0  0  0  0  0  4           0  0  0
   -0.5927    0.0000    1.4064 C   0  0  0  0  0  4           0  0  0
    0.0000   -0.0000    0.0000 C   0  0  0  0  0  4           0  0  0
    1.5260    0.0000    0.0000 C   0  0  0  0  0  4           0  0  0
    2.1188    0.0000   -1.4064 C   0  0  0  0  0  4           0  0  0
    3.6450    0.0000   -1.4064 C   0  0  0  0  0  4           0  0  0
    4.2378    0.0000   -2.8129 C   0  0  0  0  0  4           0  0  0
    5.7640    0.0000   -2.8129 C   0  0  0  0  0  4           0  0  0
    6.3567    0.0000   -4.2193 C   0  0  0  0  0  4           0  0  0
    7.8830    0.0000   -4.2193 C   0  0  0  0  0  4           0  0  0
    8.4757   -1.2180   -3.5161 C   0  0  0  0  0  4           0  0  0
   10.0019   -1.2180   -3.5161 C   0  0  0  0  0  4           0  0  0
   10.5947   -2.4360   -2.8129 C   0  0  0  0  0  4           0  0  0
   12.1162   -2.4349   -2.8135 C   0  0  0  0  0  4           0  0  0
  1  8  1  0     0  0
  2 17  2  0     0  0
  3 18  2  0     0  0
  4 19  2  0     0  0
  5  6  1  0     0  0
  5  9  1  0     0  0
  6 10  2  0     0  0
  7 11  1  0     0  0
  7 17  1  0     0  0
  7 18  1  0     0  0
  8 13  2  0     0  0
  8 14  1  0     0  0
  9 12  2  0     0  0
  9 17  1  0     0  0
 10 12  1  0     0  0
 10 19  1  0     0  0
 11 15  2  0     0  0
 11 16  1  0     0  0
 12 18  1  0     0  0
 13 15  1  0     0  0
 14 16  2  0     0  0
 19 20  1  0     0  0
 20 21  1  0     0  0
 21 22  1  0     0  0
 22 23  1  0     0  0
 23 24  1  0     0  0
 24 25  1  0     0  0
 25 26  1  0     0  0
 26 27  1  0     0  0
 27 28  1  0     0  0
 28 29  1  0     0  0
 29 30  1  0     0  0
 30 31  1  0     0  0
 31 32  1  0     0  0
 32 33  1  0     0  0
 33 34  1  0     0  0
 34 35  1  0     0  0
 35 36  1  0     0  0
M  END
> <standard_type>
IC50

> <# Confs.>
25

> <canonical_smiles>
O=C1C2=C(C(C(CCCCCCCCCCCCCCCCC)=O)=NN2)C(N1C3=CC=C(F)C=C3)=O

> <standard_relation>
=

> <predicted_activity_value>
6.173925197299173

> <actual_activity_value>
6.267606240177032

> <Compound>
7

> <publication_ID>
nan

> <standard_units>
nM

> hash
3683890307485763977

$$$$
7_
XXILIB    08252103493D 0   0.00000     0.00000

 36 38  0     1  0            999 V2000
  -16.1934   -0.0987    5.7351 F   0  0  0  0  0  1           0  0  0
  -10.3896   -0.0716    8.5854 O   0  0  0  0  0  2           0  0  0
  -10.0036   -0.0248    3.9011 O   0  0  0  0  0  2           0  0  0
   -6.9384   -0.0000    3.1127 O   0  0  0  0  0  2           0  0  0
   -7.3647   -0.0286    7.5720 N   0  0  0  0  0  3           0  0  0
   -6.4029   -0.0124    6.6183 N   0  0  0  0  0  3           0  0  0
  -10.6496   -0.0546    6.2069 N   0  0  2  0  0  3           0  0  0
  -14.8582   -0.0896    5.8499 C   0  0  0  0  0  4           0  0  0
   -8.6001   -0.0385    7.0394 C   0  0  0  0  0  4           0  0  0
   -7.0792   -0.0127    5.4470 C   0  0  0  0  0  4           0  0  0
  -12.0660   -0.0694    6.0891 C   0  0  0  0  0  4           0  0  0
   -8.4589   -0.0272    5.6868 C   0  0  0  0  0  4           0  0  0
  -14.2690    0.5097    6.9561 C   0  0  0  0  0  4           0  0  0
  -14.0809   -0.6802    4.8617 C   0  0  0  0  0  4           0  0  0
  -12.8773    0.5179    7.0765 C   0  0  0  0  0  4           0  0  0
  -12.6890   -0.6700    4.9804 C   0  0  0  0  0  4           0  0  0
   -9.9659   -0.0567    7.4411 C   0  0  0  0  0  4           0  0  0
   -9.7711   -0.0354    5.0986 C   0  0  0  0  0  4           0  0  0
   -6.3442   -0.0000    4.1907 C   0  0  0  0  0  4           0  0  0
   -4.8306    0.0000    4.2191 C   0  0  0  0  0  4           0  0  0
   -4.2380   -0.0000    2.8129 C   0  0  0  0  0  4           0  0  0
   -2.7117    0.0000    2.8129 C   0  0  0  0  0  4           0  0  0
   -2.1190   -0.0000    1.4064 C   0  0  0  0  0  4           0  0  0
   -0.5927    0.0000    1.4064 C   0  0  0  0  0  4           0  0  0
    0.0000   -0.0000    0.0000 C   0  0  0  0  0  4           0  0  0
    1.5260    0.0000    0.0000 C   0  0  0  0  0  4           0  0  0
    2.1188    0.0000   -1.4064 C   0  0  0  0  0  4           0  0  0
    3.6450    0.0000   -1.4064 C   0  0  0  0  0  4           0  0  0
    4.2378    0.0000   -2.8129 C   0  0  0  0  0  4           0  0  0
    5.7640    0.0000   -2.8129 C   0  0  0  0  0  4           0  0  0
    6.3567    0.0000   -4.2193 C   0  0  0  0  0  4           0  0  0
    7.8830    0.0000   -4.2193 C   0  0  0  0  0  4           0  0  0
    8.4757    0.0000   -5.6258 C   0  0  0  0  0  4           0  0  0
    8.0579    1.2180   -6.4451 C   0  0  0  0  0  4           0  0  0
    8.6506    1.2180   -7.8515 C   0  0  0  0  0  4           0  0  0
    8.2334    2.4327   -8.6673 C   0  0  0  0  0  4           0  0  0
  1  8  1  0     0  0
  2 17  2  0     0  0
  3 18  2  0     0  0
  4 19  2  0     0  0
  5  6  1  0     0  0
  5  9  1  0     0  0
  6 10  2  0     0  0
  7 11  1  0     0  0
  7 17  1  0     0  0
  7 18  1  0     0  0
  8 13  2  0     0  0
  8 14  1  0     0  0
  9 12  2  0     0  0
  9 17  1  0     0  0
 10 12  1  0     0  0
 10 19  1  0     0  0
 11 15  2  0     0  0
 11 16  1  0     0  0
 12 18  1  0     0  0
 13 15  1  0     0  0
 14 16  2  0     0  0
 19 20  1  0     0  0
 20 21  1  0     0  0
 21 22  1  0     0  0
 22 23  1  0     0  0
 23 24  1  0     0  0
 24 25  1  0     0  0
 25 26  1  0     0  0
 26 27  1  0     0  0
 27 28  1  0     0  0
 28 29  1  0     0  0
 29 30  1  0     0  0
 30 31  1  0     0  0
 31 32  1  0     0  0
 32 33  1  0     0  0
 33 34  1  0     0  0
 34 35  1  0     0  0
 35 36  1  0     0  0
M  END
> <standard_type>
IC50

> <# Confs.>
25

> <canonical_smiles>
O=C1C2=C(C(C(CCCCCCCCCCCCCCCCC)=O)=NN2)C(N1C3=CC=C(F)C=C3)=O

> <standard_relation>
=

> <predicted_activity_value>
6.173925197299173

> <actual_activity_value>
6.267606240177032

> <Compound>
7

> <publication_ID>
nan

> <standard_units>
nM

> hash
3683890307485763977

$$$$
7_
XXILIB    08252103493D 0   0.00000     0.00000

 36 38  0     1  0            999 V2000
    1.4333  -10.9449   13.1637 F   0  0  0  0  0  1           0  0  0
   -1.7074   -5.3681   12.2445 O   0  0  0  0  0  2           0  0  0
    0.6642   -6.6589    8.3969 O   0  0  0  0  0  2           0  0  0
    0.2285   -4.4903    6.1332 O   0  0  0  0  0  2           0  0  0
   -2.0258   -3.3164    9.8221 N   0  0  0  0  0  3           0  0  0
   -1.7900   -2.8777    8.5624 N   0  0  0  0  0  3           0  0  0
   -0.3729   -6.3840   10.5379 N   0  0  2  0  0  3           0  0  0
    0.9988   -9.8453   12.5328 C   0  0  0  0  0  4           0  0  0
   -1.3937   -4.4765   10.0765 C   0  0  0  0  0  4           0  0  0
   -0.9759   -3.8112    8.0191 C   0  0  0  0  0  4           0  0  0
    0.0899   -7.5467   11.2121 C   0  0  0  0  0  4           0  0  0
   -0.7154   -4.8244    8.9503 C   0  0  0  0  0  4           0  0  0
   -0.2346   -9.3026   12.8708 C   0  0  0  0  0  4           0  0  0
    1.7879   -9.2620   11.5494 C   0  0  0  0  0  4           0  0  0
   -0.6868   -8.1556   12.2141 C   0  0  0  0  0  4           0  0  0
    1.3349   -8.1164   10.8907 C   0  0  0  0  0  4           0  0  0
   -1.2209   -5.4223   11.1266 C   0  0  0  0  0  4           0  0  0
   -0.0338   -6.0653    9.2023 C   0  0  0  0  0  4           0  0  0
   -0.5128   -3.6536    6.6483 C   0  0  0  0  0  4           0  0  0
   -0.9425   -2.4360    5.8578 C   0  0  0  0  0  4           0  0  0
   -0.3498   -2.4360    4.4515 C   0  0  0  0  0  4           0  0  0
   -0.7676   -1.2180    3.6322 C   0  0  0  0  0  4           0  0  0
   -0.1749   -1.2180    2.2258 C   0  0  0  0  0  4           0  0  0
   -0.5927   -0.0000    1.4064 C   0  0  0  0  0  4           0  0  0
    0.0000    0.0000    0.0000 C   0  0  0  0  0  4           0  0  0
    1.5260    0.0000    0.0000 C   0  0  0  0  0  4           0  0  0
    2.1188    0.0000   -1.4064 C   0  0  0  0  0  4           0  0  0
    3.6450    0.0000   -1.4064 C   0  0  0  0  0  4           0  0  0
    4.2378    0.0000   -2.8129 C   0  0  0  0  0  4           0  0  0
    5.7640    0.0000   -2.8129 C   0  0  0  0  0  4           0  0  0
    6.3567    0.0000   -4.2193 C   0  0  0  0  0  4           0  0  0
    7.8830    0.0000   -4.2193 C   0  0  0  0  0  4           0  0  0
    8.4757    0.0000   -5.6258 C   0  0  0  0  0  4           0  0  0
   10.0019    0.0000   -5.6258 C   0  0  0  0  0  4           0  0  0
   10.5947    0.0000   -7.0322 C   0  0  0  0  0  4           0  0  0
   12.1162    0.0000   -7.0310 C   0  0  0  0  0  4           0  0  0
  1  8  1  0     0  0
  2 17  2  0     0  0
  3 18  2  0     0  0
  4 19  2  0     0  0
  5  6  1  0     0  0
  5  9  1  0     0  0
  6 10  2  0     0  0
  7 11  1  0     0  0
  7 17  1  0     0  0
  7 18  1  0     0  0
  8 13  2  0     0  0
  8 14  1  0     0  0
  9 12  2  0     0  0
  9 17  1  0     0  0
 10 12  1  0     0  0
 10 19  1  0     0  0
 11 15  2  0     0  0
 11 16  1  0     0  0
 12 18  1  0     0  0
 13 15  1  0     0  0
 14 16  2  0     0  0
 19 20  1  0     0  0
 20 21  1  0     0  0
 21 22  1  0     0  0
 22 23  1  0     0  0
 23 24  1  0     0  0
 24 25  1  0     0  0
 25 26  1  0     0  0
 26 27  1  0     0  0
 27 28  1  0     0  0
 28 29  1  0     0  0
 29 30  1  0     0  0
 30 31  1  0     0  0
 31 32  1  0     0  0
 32 33  1  0     0  0
 33 34  1  0     0  0
 34 35  1  0     0  0
 35 36  1  0     0  0
M  END
> <standard_type>
IC50

> <# Confs.>
25

> <canonical_smiles>
O=C1C2=C(C(C(CCCCCCCCCCCCCCCCC)=O)=NN2)C(N1C3=CC=C(F)C=C3)=O

> <standard_relation>
=

> <predicted_activity_value>
6.173925197299173

> <actual_activity_value>
6.267606240177032

> <Compound>
7

> <publication_ID>
nan

> <standard_units>
nM

> hash
3683890307485763977

$$$$
7_
XXILIB    08252103493D 0   0.00000     0.00000

 36 38  0     1  0            999 V2000
  -16.1934   -0.0987    5.7351 F   0  0  0  0  0  1           0  0  0
  -10.3896   -0.0716    8.5854 O   0  0  0  0  0  2           0  0  0
  -10.0036   -0.0248    3.9011 O   0  0  0  0  0  2           0  0  0
   -6.9384   -0.0000    3.1127 O   0  0  0  0  0  2           0  0  0
   -7.3647   -0.0286    7.5720 N   0  0  0  0  0  3           0  0  0
   -6.4029   -0.0124    6.6183 N   0  0  0  0  0  3           0  0  0
  -10.6496   -0.0546    6.2069 N   0  0  2  0  0  3           0  0  0
  -14.8582   -0.0896    5.8499 C   0  0  0  0  0  4           0  0  0
   -8.6001   -0.0385    7.0394 C   0  0  0  0  0  4           0  0  0
   -7.0792   -0.0127    5.4470 C   0  0  0  0  0  4           0  0  0
  -12.0660   -0.0694    6.0891 C   0  0  0  0  0  4           0  0  0
   -8.4589   -0.0272    5.6868 C   0  0  0  0  0  4           0  0  0
  -14.2690    0.5097    6.9561 C   0  0  0  0  0  4           0  0  0
  -14.0809   -0.6802    4.8617 C   0  0  0  0  0  4           0  0  0
  -12.8773    0.5179    7.0765 C   0  0  0  0  0  4           0  0  0
  -12.6890   -0.6700    4.9804 C   0  0  0  0  0  4           0  0  0
   -9.9659   -0.0567    7.4411 C   0  0  0  0  0  4           0  0  0
   -9.7711   -0.0354    5.0986 C   0  0  0  0  0  4           0  0  0
   -6.3442   -0.0000    4.1907 C   0  0  0  0  0  4           0  0  0
   -4.8306    0.0000    4.2191 C   0  0  0  0  0  4           0  0  0
   -4.2380   -0.0000    2.8129 C   0  0  0  0  0  4           0  0  0
   -2.7117    0.0000    2.8129 C   0  0  0  0  0  4           0  0  0
   -2.1190   -0.0000    1.4064 C   0  0  0  0  0  4           0  0  0
   -0.5927    0.0000    1.4064 C   0  0  0  0  0  4           0  0  0
    0.0000   -0.0000    0.0000 C   0  0  0  0  0  4           0  0  0
    1.5260    0.0000   -0.0000 C   0  0  0  0  0  4           0  0  0
    2.1188    0.0000   -1.4064 C   0  0  0  0  0  4           0  0  0
    3.6450   -0.0000   -1.4064 C   0  0  0  0  0  4           0  0  0
    4.2378    1.2180   -0.7032 C   0  0  0  0  0  4           0  0  0
    5.7640    1.2180   -0.7032 C   0  0  0  0  0  4           0  0  0
    6.3567    2.4360   -0.0000 C   0  0  0  0  0  4           0  0  0
    7.8830    2.4360   -0.0000 C   0  0  0  0  0  4           0  0  0
    8.4757    3.6540    0.7032 C   0  0  0  0  0  4           0  0  0
   10.0019    3.6540    0.7032 C   0  0  0  0  0  4           0  0  0
   10.5947    4.8721    1.4064 C   0  0  0  0  0  4           0  0  0
   12.1162    4.8710    1.4058 C   0  0  0  0  0  4           0  0  0
  1  8  1  0     0  0
  2 17  2  0     0  0
  3 18  2  0     0  0
  4 19  2  0     0  0
  5  6  1  0     0  0
  5  9  1  0     0  0
  6 10  2  0     0  0
  7 11  1  0     0  0
  7 17  1  0     0  0
  7 18  1  0     0  0
  8 13  2  0     0  0
  8 14  1  0     0  0
  9 12  2  0     0  0
  9 17  1  0     0  0
 10 12  1  0     0  0
 10 19  1  0     0  0
 11 15  2  0     0  0
 11 16  1  0     0  0
 12 18  1  0     0  0
 13 15  1  0     0  0
 14 16  2  0     0  0
 19 20  1  0     0  0
 20 21  1  0     0  0
 21 22  1  0     0  0
 22 23  1  0     0  0
 23 24  1  0     0  0
 24 25  1  0     0  0
 25 26  1  0     0  0
 26 27  1  0     0  0
 27 28  1  0     0  0
 28 29  1  0     0  0
 29 30  1  0     0  0
 30 31  1  0     0  0
 31 32  1  0     0  0
 32 33  1  0     0  0
 33 34  1  0     0  0
 34 35  1  0     0  0
 35 36  1  0     0  0
M  END
> <standard_type>
IC50

> <# Confs.>
25

> <canonical_smiles>
O=C1C2=C(C(C(CCCCCCCCCCCCCCCCC)=O)=NN2)C(N1C3=CC=C(F)C=C3)=O

> <standard_relation>
=

> <predicted_activity_value>
6.173925197299173

> <actual_activity_value>
6.267606240177032

> <Compound>
7

> <publication_ID>
nan

> <standard_units>
nM

> hash
3683890307485763977

$$$$
7_
XXILIB    08252103493D 0   0.00000     0.00000

 36 38  0     1  0            999 V2000
  -16.1934   -0.0987    5.7351 F   0  0  0  0  0  1           0  0  0
  -10.3896   -0.0716    8.5854 O   0  0  0  0  0  2           0  0  0
  -10.0036   -0.0248    3.9011 O   0  0  0  0  0  2           0  0  0
   -6.9384   -0.0000    3.1127 O   0  0  0  0  0  2           0  0  0
   -7.3647   -0.0286    7.5720 N   0  0  0  0  0  3           0  0  0
   -6.4029   -0.0124    6.6183 N   0  0  0  0  0  3           0  0  0
  -10.6496   -0.0546    6.2069 N   0  0  2  0  0  3           0  0  0
  -14.8582   -0.0896    5.8499 C   0  0  0  0  0  4           0  0  0
   -8.6001   -0.0385    7.0394 C   0  0  0  0  0  4           0  0  0
   -7.0792   -0.0127    5.4470 C   0  0  0  0  0  4           0  0  0
  -12.0660   -0.0694    6.0891 C   0  0  0  0  0  4           0  0  0
   -8.4589   -0.0272    5.6868 C   0  0  0  0  0  4           0  0  0
  -14.2690    0.5097    6.9561 C   0  0  0  0  0  4           0  0  0
  -14.0809   -0.6802    4.8617 C   0  0  0  0  0  4           0  0  0
  -12.8773    0.5179    7.0765 C   0  0  0  0  0  4           0  0  0
  -12.6890   -0.6700    4.9804 C   0  0  0  0  0  4           0  0  0
   -9.9659   -0.0567    7.4411 C   0  0  0  0  0  4           0  0  0
   -9.7711   -0.0354    5.0986 C   0  0  0  0  0  4           0  0  0
   -6.3442   -0.0000    4.1907 C   0  0  0  0  0  4           0  0  0
   -4.8306    0.0000    4.2191 C   0  0  0  0  0  4           0  0  0
   -4.2380   -0.0000    2.8129 C   0  0  0  0  0  4           0  0  0
   -2.7117    0.0000    2.8129 C   0  0  0  0  0  4           0  0  0
   -2.1190   -0.0000    1.4064 C   0  0  0  0  0  4           0  0  0
   -0.5927    0.0000    1.4064 C   0  0  0  0  0  4           0  0  0
    0.0000   -0.0000    0.0000 C   0  0  0  0  0  4           0  0  0
    1.5260    0.0000   -0.0000 C   0  0  0  0  0  4           0  0  0
    2.1188    0.0000   -1.4064 C   0  0  0  0  0  4           0  0  0
    3.6450    0.0000   -1.4064 C   0  0  0  0  0  4           0  0  0
    4.2378    0.0000   -2.8129 C   0  0  0  0  0  4           0  0  0
    3.8199   -1.2180   -3.6322 C   0  0  0  0  0  4           0  0  0
    4.4127   -1.2180   -5.0386 C   0  0  0  0  0  4           0  0  0
    3.9948   -2.4360   -5.8580 C   0  0  0  0  0  4           0  0  0
    4.5876   -2.4360   -7.2644 C   0  0  0  0  0  4           0  0  0
    4.1697   -3.6540   -8.0837 C   0  0  0  0  0  4           0  0  0
    4.7625   -3.6540   -9.4902 C   0  0  0  0  0  4           0  0  0
    4.3453   -4.8687  -10.3060 C   0  0  0  0  0  4           0  0  0
  1  8  1  0     0  0
  2 17  2  0     0  0
  3 18  2  0     0  0
  4 19  2  0     0  0
  5  6  1  0     0  0
  5  9  1  0     0  0
  6 10  2  0     0  0
  7 11  1  0     0  0
  7 17  1  0     0  0
  7 18  1  0     0  0
  8 13  2  0     0  0
  8 14  1  0     0  0
  9 12  2  0     0  0
  9 17  1  0     0  0
 10 12  1  0     0  0
 10 19  1  0     0  0
 11 15  2  0     0  0
 11 16  1  0     0  0
 12 18  1  0     0  0
 13 15  1  0     0  0
 14 16  2  0     0  0
 19 20  1  0     0  0
 20 21  1  0     0  0
 21 22  1  0     0  0
 22 23  1  0     0  0
 23 24  1  0     0  0
 24 25  1  0     0  0
 25 26  1  0     0  0
 26 27  1  0     0  0
 27 28  1  0     0  0
 28 29  1  0     0  0
 29 30  1  0     0  0
 30 31  1  0     0  0
 31 32  1  0     0  0
 32 33  1  0     0  0
 33 34  1  0     0  0
 34 35  1  0     0  0
 35 36  1  0     0  0
M  END
> <standard_type>
IC50

> <# Confs.>
25

> <canonical_smiles>
O=C1C2=C(C(C(CCCCCCCCCCCCCCCCC)=O)=NN2)C(N1C3=CC=C(F)C=C3)=O

> <standard_relation>
=

> <predicted_activity_value>
6.173925197299173

> <actual_activity_value>
6.267606240177032

> <Compound>
7

> <publication_ID>
nan

> <standard_units>
nM

> hash
3683890307485763977

$$$$
7_
XXILIB    08252103493D 0   0.00000     0.00000

 36 38  0     1  0            999 V2000
  -16.1934   -0.0987    5.7351 F   0  0  0  0  0  1           0  0  0
  -10.3896   -0.0716    8.5854 O   0  0  0  0  0  2           0  0  0
  -10.0036   -0.0248    3.9011 O   0  0  0  0  0  2           0  0  0
   -6.9384   -0.0000    3.1127 O   0  0  0  0  0  2           0  0  0
   -7.3647   -0.0286    7.5720 N   0  0  0  0  0  3           0  0  0
   -6.4029   -0.0124    6.6183 N   0  0  0  0  0  3           0  0  0
  -10.6496   -0.0546    6.2069 N   0  0  2  0  0  3           0  0  0
  -14.8582   -0.0896    5.8499 C   0  0  0  0  0  4           0  0  0
   -8.6001   -0.0385    7.0394 C   0  0  0  0  0  4           0  0  0
   -7.0792   -0.0127    5.4470 C   0  0  0  0  0  4           0  0  0
  -12.0660   -0.0694    6.0891 C   0  0  0  0  0  4           0  0  0
   -8.4589   -0.0272    5.6868 C   0  0  0  0  0  4           0  0  0
  -14.2690    0.5097    6.9561 C   0  0  0  0  0  4           0  0  0
  -14.0809   -0.6802    4.8617 C   0  0  0  0  0  4           0  0  0
  -12.8773    0.5179    7.0765 C   0  0  0  0  0  4           0  0  0
  -12.6890   -0.6700    4.9804 C   0  0  0  0  0  4           0  0  0
   -9.9659   -0.0567    7.4411 C   0  0  0  0  0  4           0  0  0
   -9.7711   -0.0354    5.0986 C   0  0  0  0  0  4           0  0  0
   -6.3442   -0.0000    4.1907 C   0  0  0  0  0  4           0  0  0
   -4.8306    0.0000    4.2191 C   0  0  0  0  0  4           0  0  0
   -4.2380   -0.0000    2.8129 C   0  0  0  0  0  4           0  0  0
   -2.7117    0.0000    2.8129 C   0  0  0  0  0  4           0  0  0
   -2.1190   -0.0000    1.4064 C   0  0  0  0  0  4           0  0  0
   -0.5927    0.0000    1.4064 C   0  0  0  0  0  4           0  0  0
    0.0000   -0.0000    0.0000 C   0  0  0  0  0  4           0  0  0
    1.5260   -0.0000    0.0000 C   0  0  0  0  0  4           0  0  0
    2.1188    0.0000   -1.4064 C   0  0  0  0  0  4           0  0  0
    1.7009   -1.2180   -2.2258 C   0  0  0  0  0  4           0  0  0
    2.2937   -1.2180   -3.6322 C   0  0  0  0  0  4           0  0  0
    1.8759   -2.4360   -4.4515 C   0  0  0  0  0  4           0  0  0
    2.4686   -2.4360   -5.8580 C   0  0  0  0  0  4           0  0  0
    2.0508   -3.6540   -6.6773 C   0  0  0  0  0  4           0  0  0
    2.6435   -3.6540   -8.0837 C   0  0  0  0  0  4           0  0  0
    2.2257   -4.8721   -8.9030 C   0  0  0  0  0  4           0  0  0
    2.8184   -4.8721  -10.3095 C   0  0  0  0  0  4           0  0  0
    2.4012   -6.0867  -11.1253 C   0  0  0  0  0  4           0  0  0
  1  8  1  0     0  0
  2 17  2  0     0  0
  3 18  2  0     0  0
  4 19  2  0     0  0
  5  6  1  0     0  0
  5  9  1  0     0  0
  6 10  2  0     0  0
  7 11  1  0     0  0
  7 17  1  0     0  0
  7 18  1  0     0  0
  8 13  2  0     0  0
  8 14  1  0     0  0
  9 12  2  0     0  0
  9 17  1  0     0  0
 10 12  1  0     0  0
 10 19  1  0     0  0
 11 15  2  0     0  0
 11 16  1  0     0  0
 12 18  1  0     0  0
 13 15  1  0     0  0
 14 16  2  0     0  0
 19 20  1  0     0  0
 20 21  1  0     0  0
 21 22  1  0     0  0
 22 23  1  0     0  0
 23 24  1  0     0  0
 24 25  1  0     0  0
 25 26  1  0     0  0
 26 27  1  0     0  0
 27 28  1  0     0  0
 28 29  1  0     0  0
 29 30  1  0     0  0
 30 31  1  0     0  0
 31 32  1  0     0  0
 32 33  1  0     0  0
 33 34  1  0     0  0
 34 35  1  0     0  0
 35 36  1  0     0  0
M  END
> <standard_type>
IC50

> <# Confs.>
25

> <canonical_smiles>
O=C1C2=C(C(C(CCCCCCCCCCCCCCCCC)=O)=NN2)C(N1C3=CC=C(F)C=C3)=O

> <standard_relation>
=

> <predicted_activity_value>
6.173925197299173

> <actual_activity_value>
6.267606240177032

> <Compound>
7

> <publication_ID>
nan

> <standard_units>
nM

> hash
3683890307485763977

$$$$
7_
XXILIB    08252103493D 0   0.00000     0.00000

 36 38  0     1  0            999 V2000
  -16.1934   -0.0987    5.7351 F   0  0  0  0  0  1           0  0  0
  -10.3896   -0.0716    8.5854 O   0  0  0  0  0  2           0  0  0
  -10.0036   -0.0248    3.9011 O   0  0  0  0  0  2           0  0  0
   -6.9384   -0.0000    3.1127 O   0  0  0  0  0  2           0  0  0
   -7.3647   -0.0286    7.5720 N   0  0  0  0  0  3           0  0  0
   -6.4029   -0.0124    6.6183 N   0  0  0  0  0  3           0  0  0
  -10.6496   -0.0546    6.2069 N   0  0  2  0  0  3           0  0  0
  -14.8582   -0.0896    5.8499 C   0  0  0  0  0  4           0  0  0
   -8.6001   -0.0385    7.0394 C   0  0  0  0  0  4           0  0  0
   -7.0792   -0.0127    5.4470 C   0  0  0  0  0  4           0  0  0
  -12.0660   -0.0694    6.0891 C   0  0  0  0  0  4           0  0  0
   -8.4589   -0.0272    5.6868 C   0  0  0  0  0  4           0  0  0
  -14.2690    0.5097    6.9561 C   0  0  0  0  0  4           0  0  0
  -14.0809   -0.6802    4.8617 C   0  0  0  0  0  4           0  0  0
  -12.8773    0.5179    7.0765 C   0  0  0  0  0  4           0  0  0
  -12.6890   -0.6700    4.9804 C   0  0  0  0  0  4           0  0  0
   -9.9659   -0.0567    7.4411 C   0  0  0  0  0  4           0  0  0
   -9.7711   -0.0354    5.0986 C   0  0  0  0  0  4           0  0  0
   -6.3442   -0.0000    4.1907 C   0  0  0  0  0  4           0  0  0
   -4.8306    0.0000    4.2191 C   0  0  0  0  0  4           0  0  0
   -4.2380   -0.0000    2.8129 C   0  0  0  0  0  4           0  0  0
   -2.7117    0.0000    2.8129 C   0  0  0  0  0  4           0  0  0
   -2.1190   -0.0000    1.4064 C   0  0  0  0  0  4           0  0  0
   -0.5927    0.0000    1.4064 C   0  0  0  0  0  4           0  0  0
    0.0000   -0.0000    0.0000 C   0  0  0  0  0  4           0  0  0
    1.5260   -0.0000   -0.0000 C   0  0  0  0  0  4           0  0  0
    2.1188    0.0000   -1.4064 C   0  0  0  0  0  4           0  0  0
    3.6450    0.0000   -1.4064 C   0  0  0  0  0  4           0  0  0
    4.2378    0.0000   -2.8129 C   0  0  0  0  0  4           0  0  0
    5.7640    0.0000   -2.8129 C   0  0  0  0  0  4           0  0  0
    6.3567    1.2180   -2.1097 C   0  0  0  0  0  4           0  0  0
    7.8830    1.2180   -2.1097 C   0  0  0  0  0  4           0  0  0
    8.4757    2.4360   -1.4064 C   0  0  0  0  0  4           0  0  0
   10.0019    2.4360   -1.4064 C   0  0  0  0  0  4           0  0  0
   10.5947    3.6540   -0.7032 C   0  0  0  0  0  4           0  0  0
   12.1162    3.6530   -0.7039 C   0  0  0  0  0  4           0  0  0
  1  8  1  0     0  0
  2 17  2  0     0  0
  3 18  2  0     0  0
  4 19  2  0     0  0
  5  6  1  0     0  0
  5  9  1  0     0  0
  6 10  2  0     0  0
  7 11  1  0     0  0
  7 17  1  0     0  0
  7 18  1  0     0  0
  8 13  2  0     0  0
  8 14  1  0     0  0
  9 12  2  0     0  0
  9 17  1  0     0  0
 10 12  1  0     0  0
 10 19  1  0     0  0
 11 15  2  0     0  0
 11 16  1  0     0  0
 12 18  1  0     0  0
 13 15  1  0     0  0
 14 16  2  0     0  0
 19 20  1  0     0  0
 20 21  1  0     0  0
 21 22  1  0     0  0
 22 23  1  0     0  0
 23 24  1  0     0  0
 24 25  1  0     0  0
 25 26  1  0     0  0
 26 27  1  0     0  0
 27 28  1  0     0  0
 28 29  1  0     0  0
 29 30  1  0     0  0
 30 31  1  0     0  0
 31 32  1  0     0  0
 32 33  1  0     0  0
 33 34  1  0     0  0
 34 35  1  0     0  0
 35 36  1  0     0  0
M  END
> <standard_type>
IC50

> <# Confs.>
25

> <canonical_smiles>
O=C1C2=C(C(C(CCCCCCCCCCCCCCCCC)=O)=NN2)C(N1C3=CC=C(F)C=C3)=O

> <standard_relation>
=

> <predicted_activity_value>
6.173925197299173

> <actual_activity_value>
6.267606240177032

> <Compound>
7

> <publication_ID>
nan

> <standard_units>
nM

> hash
3683890307485763977

$$$$
20_
XXILIB    08252103493D 0   0.00000     0.00000

 20 20  0     1  0            999 V2000
    1.4620   -3.3573    1.9561 O   0  0  0  0  0  2           0  0  0
    4.1722   -0.5240    0.3025 O   0  0  0  0  0  2           0  0  0
    3.3198   -4.5441    2.5930 O   0  0  0  0  0  2           0  0  0
    1.9929   -1.1726    0.6770 O   0  0  0  0  0  2           0  0  0
    6.0946   -2.6041    1.4597 O   0  0  0  0  0  2           0  0  0
    4.7337   -3.2469    4.6386 O   0  0  0  0  0  2           0  0  0
    2.6730   -3.4891    2.0150 C   0  0  0  0  0  4           0  0  0
    3.3406   -1.2998    0.7504 C   0  0  0  0  0  4           0  0  0
    4.8515   -3.0773    1.7671 C   0  0  0  0  0  4           0  0  0
    4.7389   -4.3567    2.5020 C   0  0  1  0  0  4           0  0  0
    1.5218   -0.0000   -0.0000 C   0  0  0  0  0  4           0  0  0
    5.3168   -4.3222    3.9088 C   0  0  0  0  0  4           0  0  0
    3.6651   -2.5433    1.4690 C   0  0  0  0  0  4           0  0  0
    0.0000   -0.0000    0.0000 C   0  0  0  0  0  4           0  0  0
   -0.6267    0.0000    1.3927 C   0  0  0  0  0  4           0  0  0
   -2.1539   -0.0000    1.3927 C   0  0  0  0  0  4           0  0  0
   -2.7806    0.0000    2.7854 C   0  0  0  0  0  4           0  0  0
   -4.3078   -0.0000    2.7854 C   0  0  0  0  0  4           0  0  0
   -4.9345    0.0000    4.1781 C   0  0  0  0  0  4           0  0  0
   -6.4551   -0.0000    4.1391 C   0  0  0  0  0  4           0  0  0
  1  7  2  0     0  0
  2  8  2  0     0  0
  3  7  1  0     0  0
  3 10  1  0     0  0
  4  8  1  0     0  0
  4 11  1  0     0  0
  5  9  1  0     0  0
  6 12  1  0     0  0
  7 13  1  0     0  0
  8 13  1  0     0  0
  9 10  1  0     0  0
  9 13  2  0     0  0
 10 12  1  0     0  0
 11 14  1  0     0  0
 14 15  1  0     0  0
 15 16  1  0     0  0
 16 17  1  0     0  0
 17 18  1  0     0  0
 18 19  1  0     0  0
 19 20  1  0     0  0
M  END
> <standard_type>
IC50

> <# Confs.>
25

> <canonical_smiles>
OC([C@@H](CO)O1)=C(C(OCCCCCCCC)=O)C1=O

> <standard_relation>
=

> <predicted_activity_value>
4.119186407719209

> <actual_activity_value>
3.9965394678904933

> <Compound>
20

> <publication_ID>
nan

> <standard_units>
nM

> hash
13237113829460550326

$$$$
20_
XXILIB    08252103493D 0   0.00000     0.00000

 20 20  0     1  0            999 V2000
    1.4620   -0.0154   -3.8855 O   0  0  0  0  0  2           0  0  0
    4.1722    0.0000   -0.6051 O   0  0  0  0  0  2           0  0  0
    3.3198    0.0264   -5.2318 O   0  0  0  0  0  2           0  0  0
    1.9929    0.0000   -1.3540 O   0  0  0  0  0  2           0  0  0
    6.0946    0.0379   -2.9851 O   0  0  0  0  0  2           0  0  0
    4.7337   -2.3937   -5.1312 O   0  0  0  0  0  2           0  0  0
    2.6730   -0.0005   -4.0292 C   0  0  0  0  0  4           0  0  0
    3.3406    0.0000   -1.5008 C   0  0  0  0  0  4           0  0  0
    4.8515    0.0083   -3.5485 C   0  0  0  0  0  4           0  0  0
    4.7389    0.0115   -5.0240 C   0  0  1  0  0  4           0  0  0
    1.5218    0.0000    0.0000 C   0  0  0  0  0  4           0  0  0
    5.3168   -1.2240   -5.6976 C   0  0  0  0  0  4           0  0  0
    3.6651   -0.0005   -2.9371 C   0  0  0  0  0  4           0  0  0
    0.0000   -0.0000    0.0000 C   0  0  0  0  0  4           0  0  0
   -0.6267    0.0000    1.3927 C   0  0  0  0  0  4           0  0  0
   -2.1539   -0.0000    1.3927 C   0  0  0  0  0  4           0  0  0
   -2.7806    0.0000    2.7854 C   0  0  0  0  0  4           0  0  0
   -4.3078   -0.0000    2.7854 C   0  0  0  0  0  4           0  0  0
   -4.9345    0.0000    4.1781 C   0  0  0  0  0  4           0  0  0
   -6.4551   -0.0000    4.1391 C   0  0  0  0  0  4           0  0  0
  1  7  2  0     0  0
  2  8  2  0     0  0
  3  7  1  0     0  0
  3 10  1  0     0  0
  4  8  1  0     0  0
  4 11  1  0     0  0
  5  9  1  0     0  0
  6 12  1  0     0  0
  7 13  1  0     0  0
  8 13  1  0     0  0
  9 10  1  0     0  0
  9 13  2  0     0  0
 10 12  1  0     0  0
 11 14  1  0     0  0
 14 15  1  0     0  0
 15 16  1  0     0  0
 16 17  1  0     0  0
 17 18  1  0     0  0
 18 19  1  0     0  0
 19 20  1  0     0  0
M  END
> <standard_type>
IC50

> <# Confs.>
25

> <canonical_smiles>
OC([C@@H](CO)O1)=C(C(OCCCCCCCC)=O)C1=O

> <standard_relation>
=

> <predicted_activity_value>
4.119186407719209

> <actual_activity_value>
3.9965394678904933

> <Compound>
20

> <publication_ID>
nan

> <standard_units>
nM

> hash
13237113829460550326

$$$$
20_
XXILIB    08252103493D 0   0.00000     0.00000

 20 20  0     1  0            999 V2000
    1.4620    3.3727    1.9295 O   0  0  0  0  0  2           0  0  0
    4.1722    0.5240    0.3025 O   0  0  0  0  0  2           0  0  0
    3.3198    4.5176    2.6388 O   0  0  0  0  0  2           0  0  0
    1.9929    1.1726    0.6770 O   0  0  0  0  0  2           0  0  0
    6.0946    2.5662    1.5254 O   0  0  0  0  0  2           0  0  0
    4.7337    5.6406    0.4926 O   0  0  0  0  0  2           0  0  0
    2.6730    3.4896    2.0141 C   0  0  0  0  0  4           0  0  0
    3.3406    1.2998    0.7504 C   0  0  0  0  0  4           0  0  0
    4.8515    3.0690    1.7815 C   0  0  0  0  0  4           0  0  0
    4.7389    4.3451    2.5220 C   0  0  1  0  0  4           0  0  0
    1.5218   -0.0000    0.0000 C   0  0  0  0  0  4           0  0  0
    5.3168    5.5462    1.7887 C   0  0  0  0  0  4           0  0  0
    3.6651    2.5438    1.4681 C   0  0  0  0  0  4           0  0  0
    0.0000   -0.0000    0.0000 C   0  0  0  0  0  4           0  0  0
   -0.6267    0.0000    1.3927 C   0  0  0  0  0  4           0  0  0
   -2.1539   -0.0000    1.3927 C   0  0  0  0  0  4           0  0  0
   -2.7806    0.0000    2.7854 C   0  0  0  0  0  4           0  0  0
   -4.3078   -0.0000    2.7854 C   0  0  0  0  0  4           0  0  0
   -4.9345    0.0000    4.1781 C   0  0  0  0  0  4           0  0  0
   -6.4551   -0.0000    4.1391 C   0  0  0  0  0  4           0  0  0
  1  7  2  0     0  0
  2  8  2  0     0  0
  3  7  1  0     0  0
  3 10  1  0     0  0
  4  8  1  0     0  0
  4 11  1  0     0  0
  5  9  1  0     0  0
  6 12  1  0     0  0
  7 13  1  0     0  0
  8 13  1  0     0  0
  9 10  1  0     0  0
  9 13  2  0     0  0
 10 12  1  0     0  0
 11 14  1  0     0  0
 14 15  1  0     0  0
 15 16  1  0     0  0
 16 17  1  0     0  0
 17 18  1  0     0  0
 18 19  1  0     0  0
 19 20  1  0     0  0
M  END
> <standard_type>
IC50

> <# Confs.>
25

> <canonical_smiles>
OC([C@@H](CO)O1)=C(C(OCCCCCCCC)=O)C1=O

> <standard_relation>
=

> <predicted_activity_value>
4.119186407719209

> <actual_activity_value>
3.9965394678904933

> <Compound>
20

> <publication_ID>
nan

> <standard_units>
nM

> hash
13237113829460550326

$$$$
20_
XXILIB    08252103493D 0   0.00000     0.00000

 20 20  0     1  0            999 V2000
    1.4620   -3.3573    1.9561 O   0  0  0  0  0  2           0  0  0
    4.1722   -0.5240    0.3025 O   0  0  0  0  0  2           0  0  0
    3.3198   -4.5441    2.5930 O   0  0  0  0  0  2           0  0  0
    1.9929   -1.1726    0.6770 O   0  0  0  0  0  2           0  0  0
    6.0946   -2.6041    1.4597 O   0  0  0  0  0  2           0  0  0
    4.7337   -3.2469    4.6386 O   0  0  0  0  0  2           0  0  0
    2.6730   -3.4891    2.0150 C   0  0  0  0  0  4           0  0  0
    3.3406   -1.2998    0.7504 C   0  0  0  0  0  4           0  0  0
    4.8515   -3.0773    1.7671 C   0  0  0  0  0  4           0  0  0
    4.7389   -4.3567    2.5020 C   0  0  1  0  0  4           0  0  0
    1.5218   -0.0000   -0.0000 C   0  0  0  0  0  4           0  0  0
    5.3168   -4.3222    3.9088 C   0  0  0  0  0  4           0  0  0
    3.6651   -2.5433    1.4690 C   0  0  0  0  0  4           0  0  0
    0.0000    0.0000    0.0000 C   0  0  0  0  0  4           0  0  0
   -0.6267   -0.0000    1.3927 C   0  0  0  0  0  4           0  0  0
   -0.2489    1.2061    2.2499 C   0  0  0  0  0  4           0  0  0
   -0.8756    1.2061    3.6426 C   0  0  0  0  0  4           0  0  0
   -0.4977    2.4122    4.4999 C   0  0  0  0  0  4           0  0  0
   -1.1244    2.4122    5.8926 C   0  0  0  0  0  4           0  0  0
   -0.7264    3.6269    6.7170 C   0  0  0  0  0  4           0  0  0
  1  7  2  0     0  0
  2  8  2  0     0  0
  3  7  1  0     0  0
  3 10  1  0     0  0
  4  8  1  0     0  0
  4 11  1  0     0  0
  5  9  1  0     0  0
  6 12  1  0     0  0
  7 13  1  0     0  0
  8 13  1  0     0  0
  9 10  1  0     0  0
  9 13  2  0     0  0
 10 12  1  0     0  0
 11 14  1  0     0  0
 14 15  1  0     0  0
 15 16  1  0     0  0
 16 17  1  0     0  0
 17 18  1  0     0  0
 18 19  1  0     0  0
 19 20  1  0     0  0
M  END
> <standard_type>
IC50

> <# Confs.>
25

> <canonical_smiles>
OC([C@@H](CO)O1)=C(C(OCCCCCCCC)=O)C1=O

> <standard_relation>
=

> <predicted_activity_value>
4.119186407719209

> <actual_activity_value>
3.9965394678904933

> <Compound>
20

> <publication_ID>
nan

> <standard_units>
nM

> hash
13237113829460550326

$$$$
20_
XXILIB    08252103493D 0   0.00000     0.00000

 20 20  0     1  0            999 V2000
    2.7068    2.3232    2.8809 O   0  0  0  0  0  2           0  0  0
    1.9958    2.3321   -1.3145 O   0  0  0  0  0  2           0  0  0
    3.3647    4.5068    2.6264 O   0  0  0  0  0  2           0  0  0
    1.9929    1.1726    0.6770 O   0  0  0  0  0  2           0  0  0
    2.9779    5.1932   -0.8559 O   0  0  0  0  0  2           0  0  0
    1.2005    6.1821    2.0135 O   0  0  0  0  0  2           0  0  0
    2.8962    3.3037    2.1809 C   0  0  0  0  0  4           0  0  0
    2.1840    2.2606   -0.1089 C   0  0  0  0  0  4           0  0  0
    2.9906    4.6232    0.3844 C   0  0  0  0  0  4           0  0  0
    3.4394    5.4362    1.5365 C   0  0  1  0  0  4           0  0  0
    1.5218   -0.0000   -0.0000 C   0  0  0  0  0  4           0  0  0
    2.5439    6.6257    1.8487 C   0  0  0  0  0  4           0  0  0
    2.6644    3.3747    0.7254 C   0  0  0  0  0  4           0  0  0
    0.0000   -0.0000    0.0000 C   0  0  0  0  0  4           0  0  0
   -0.6267    0.0000    1.3927 C   0  0  0  0  0  4           0  0  0
   -2.1539   -0.0000    1.3927 C   0  0  0  0  0  4           0  0  0
   -2.7806    0.0000    2.7854 C   0  0  0  0  0  4           0  0  0
   -4.3078   -0.0000    2.7854 C   0  0  0  0  0  4           0  0  0
   -4.9345    0.0000    4.1781 C   0  0  0  0  0  4           0  0  0
   -6.4551   -0.0000    4.1391 C   0  0  0  0  0  4           0  0  0
  1  7  2  0     0  0
  2  8  2  0     0  0
  3  7  1  0     0  0
  3 10  1  0     0  0
  4  8  1  0     0  0
  4 11  1  0     0  0
  5  9  1  0     0  0
  6 12  1  0     0  0
  7 13  1  0     0  0
  8 13  1  0     0  0
  9 10  1  0     0  0
  9 13  2  0     0  0
 10 12  1  0     0  0
 11 14  1  0     0  0
 14 15  1  0     0  0
 15 16  1  0     0  0
 16 17  1  0     0  0
 17 18  1  0     0  0
 18 19  1  0     0  0
 19 20  1  0     0  0
M  END
> <standard_type>
IC50

> <# Confs.>
25

> <canonical_smiles>
OC([C@@H](CO)O1)=C(C(OCCCCCCCC)=O)C1=O

> <standard_relation>
=

> <predicted_activity_value>
4.119186407719209

> <actual_activity_value>
3.9965394678904933

> <Compound>
20

> <publication_ID>
nan

> <standard_units>
nM

> hash
13237113829460550326

$$$$
20_
XXILIB    08252103493D 0   0.00000     0.00000

 20 20  0     1  0            999 V2000
    2.7068    1.3334   -3.4524 O   0  0  0  0  0  2           0  0  0
    1.9958   -2.3044   -1.3624 O   0  0  0  0  0  2           0  0  0
    3.3647    0.0211   -5.2161 O   0  0  0  0  0  2           0  0  0
    1.9929    0.0000   -1.3540 O   0  0  0  0  0  2           0  0  0
    2.9779   -3.3378   -4.0696 O   0  0  0  0  0  2           0  0  0
    1.2005   -1.3473   -6.3606 O   0  0  0  0  0  2           0  0  0
    2.8962    0.2368   -3.9515 C   0  0  0  0  0  4           0  0  0
    2.1840   -1.2246   -1.9033 C   0  0  0  0  0  4           0  0  0
    2.9906   -1.9787   -4.1960 C   0  0  0  0  0  4           0  0  0
    3.4394   -1.3874   -5.4761 C   0  0  1  0  0  4           0  0  0
    1.5218    0.0000    0.0000 C   0  0  0  0  0  4           0  0  0
    2.5439   -1.7119   -6.6624 C   0  0  0  0  0  4           0  0  0
    2.6644   -1.0591   -3.2853 C   0  0  0  0  0  4           0  0  0
    0.0000   -0.0000    0.0000 C   0  0  0  0  0  4           0  0  0
   -0.6267    0.0000    1.3927 C   0  0  0  0  0  4           0  0  0
   -2.1539   -0.0000    1.3927 C   0  0  0  0  0  4           0  0  0
   -2.7806    0.0000    2.7854 C   0  0  0  0  0  4           0  0  0
   -4.3078   -0.0000    2.7854 C   0  0  0  0  0  4           0  0  0
   -4.9345    0.0000    4.1781 C   0  0  0  0  0  4           0  0  0
   -6.4551   -0.0000    4.1391 C   0  0  0  0  0  4           0  0  0
  1  7  2  0     0  0
  2  8  2  0     0  0
  3  7  1  0     0  0
  3 10  1  0     0  0
  4  8  1  0     0  0
  4 11  1  0     0  0
  5  9  1  0     0  0
  6 12  1  0     0  0
  7 13  1  0     0  0
  8 13  1  0     0  0
  9 10  1  0     0  0
  9 13  2  0     0  0
 10 12  1  0     0  0
 11 14  1  0     0  0
 14 15  1  0     0  0
 15 16  1  0     0  0
 16 17  1  0     0  0
 17 18  1  0     0  0
 18 19  1  0     0  0
 19 20  1  0     0  0
M  END
> <standard_type>
IC50

> <# Confs.>
25

> <canonical_smiles>
OC([C@@H](CO)O1)=C(C(OCCCCCCCC)=O)C1=O

> <standard_relation>
=

> <predicted_activity_value>
4.119186407719209

> <actual_activity_value>
3.9965394678904933

> <Compound>
20

> <publication_ID>
nan

> <standard_units>
nM

> hash
13237113829460550326

$$$$
20_
XXILIB    08252103493D 0   0.00000     0.00000

 20 20  0     1  0            999 V2000
    1.4620   -3.3573    1.9561 O   0  0  0  0  0  2           0  0  0
    4.1722   -0.5240    0.3025 O   0  0  0  0  0  2           0  0  0
    3.3198   -4.5441    2.5930 O   0  0  0  0  0  2           0  0  0
    1.9929   -1.1726    0.6770 O   0  0  0  0  0  2           0  0  0
    6.0946   -2.6041    1.4597 O   0  0  0  0  0  2           0  0  0
    4.7337   -3.2469    4.6386 O   0  0  0  0  0  2           0  0  0
    2.6730   -3.4891    2.0150 C   0  0  0  0  0  4           0  0  0
    3.3406   -1.2998    0.7504 C   0  0  0  0  0  4           0  0  0
    4.8515   -3.0773    1.7671 C   0  0  0  0  0  4           0  0  0
    4.7389   -4.3567    2.5020 C   0  0  1  0  0  4           0  0  0
    1.5218   -0.0000   -0.0000 C   0  0  0  0  0  4           0  0  0
    5.3168   -4.3222    3.9088 C   0  0  0  0  0  4           0  0  0
    3.6651   -2.5433    1.4690 C   0  0  0  0  0  4           0  0  0
    0.0000    0.0000    0.0000 C   0  0  0  0  0  4           0  0  0
   -0.6267    0.0000    1.3927 C   0  0  0  0  0  4           0  0  0
   -0.2489    1.2061    2.2499 C   0  0  0  0  0  4           0  0  0
   -0.8756    1.2061    3.6426 C   0  0  0  0  0  4           0  0  0
   -0.4977   -0.0000    4.4999 C   0  0  0  0  0  4           0  0  0
    1.0007   -0.1394    4.7599 C   0  0  0  0  0  4           0  0  0
    1.3393   -1.3502    5.6160 C   0  0  0  0  0  4           0  0  0
  1  7  2  0     0  0
  2  8  2  0     0  0
  3  7  1  0     0  0
  3 10  1  0     0  0
  4  8  1  0     0  0
  4 11  1  0     0  0
  5  9  1  0     0  0
  6 12  1  0     0  0
  7 13  1  0     0  0
  8 13  1  0     0  0
  9 10  1  0     0  0
  9 13  2  0     0  0
 10 12  1  0     0  0
 11 14  1  0     0  0
 14 15  1  0     0  0
 15 16  1  0     0  0
 16 17  1  0     0  0
 17 18  1  0     0  0
 18 19  1  0     0  0
 19 20  1  0     0  0
M  END
> <standard_type>
IC50

> <# Confs.>
25

> <canonical_smiles>
OC([C@@H](CO)O1)=C(C(OCCCCCCCC)=O)C1=O

> <standard_relation>
=

> <predicted_activity_value>
4.119186407719209

> <actual_activity_value>
3.9965394678904933

> <Compound>
20

> <publication_ID>
nan

> <standard_units>
nM

> hash
13237113829460550326

$$$$
20_
XXILIB    08252103493D 0   0.00000     0.00000

 20 20  0     1  0            999 V2000
    6.0620    2.4578    1.4353 O   0  0  0  0  0  2           0  0  0
    4.1722    0.5240    0.3025 O   0  0  0  0  0  2           0  0  0
    4.9634    4.2237    2.4052 O   0  0  0  0  0  2           0  0  0
    1.9929    1.1726    0.6770 O   0  0  0  0  0  2           0  0  0
    1.4923    3.5053    1.9784 O   0  0  0  0  0  2           0  0  0
    3.6440    3.4628    4.7603 O   0  0  0  0  0  2           0  0  0
    5.0304    3.0286    1.7473 C   0  0  0  0  0  4           0  0  0
    3.3406    1.2998    0.7504 C   0  0  0  0  0  4           0  0  0
    2.8568    3.4684    1.9910 C   0  0  0  0  0  4           0  0  0
    3.5929    4.5822    2.6293 C   0  0  1  0  0  4           0  0  0
    1.5218   -0.0000    0.0000 C   0  0  0  0  0  4           0  0  0
    3.3609    4.7072    4.1276 C   0  0  0  0  0  4           0  0  0
    3.6651    2.5438    1.4681 C   0  0  0  0  0  4           0  0  0
    0.0000   -0.0000    0.0000 C   0  0  0  0  0  4           0  0  0
   -0.6267    0.0000    1.3927 C   0  0  0  0  0  4           0  0  0
   -2.1539   -0.0000    1.3927 C   0  0  0  0  0  4           0  0  0
   -2.7806    0.0000    2.7854 C   0  0  0  0  0  4           0  0  0
   -4.3078   -0.0000    2.7854 C   0  0  0  0  0  4           0  0  0
   -4.9345    0.0000    4.1781 C   0  0  0  0  0  4           0  0  0
   -6.4551   -0.0000    4.1391 C   0  0  0  0  0  4           0  0  0
  1  7  2  0     0  0
  2  8  2  0     0  0
  3  7  1  0     0  0
  3 10  1  0     0  0
  4  8  1  0     0  0
  4 11  1  0     0  0
  5  9  1  0     0  0
  6 12  1  0     0  0
  7 13  1  0     0  0
  8 13  1  0     0  0
  9 10  1  0     0  0
  9 13  2  0     0  0
 10 12  1  0     0  0
 11 14  1  0     0  0
 14 15  1  0     0  0
 15 16  1  0     0  0
 16 17  1  0     0  0
 17 18  1  0     0  0
 18 19  1  0     0  0
 19 20  1  0     0  0
M  END
> <standard_type>
IC50

> <# Confs.>
25

> <canonical_smiles>
OC([C@@H](CO)O1)=C(C(OCCCCCCCC)=O)C1=O

> <standard_relation>
=

> <predicted_activity_value>
4.119186407719209

> <actual_activity_value>
3.9965394678904933

> <Compound>
20

> <publication_ID>
nan

> <standard_units>
nM

> hash
13237113829460550326

$$$$
20_
XXILIB    08252103493D 0   0.00000     0.00000

 20 20  0     1  0            999 V2000
    1.7630    2.7236    2.9184 O   0  0  0  0  0  2           0  0  0
    4.1722    0.5240    0.3025 O   0  0  0  0  0  2           0  0  0
    3.4435    4.2848    2.9865 O   0  0  0  0  0  2           0  0  0
    1.9929    1.1726    0.6770 O   0  0  0  0  0  2           0  0  0
    5.8050    3.2149    0.5319 O   0  0  0  0  0  2           0  0  0
    3.4939    5.8626    0.6682 O   0  0  0  0  0  2           0  0  0
    2.8311    3.1568    2.5196 C   0  0  0  0  0  4           0  0  0
    3.3406    1.2998    0.7504 C   0  0  0  0  0  4           0  0  0
    4.7223    3.3503    1.3522 C   0  0  0  0  0  4           0  0  0
    4.6683    4.5066    2.2740 C   0  0  1  0  0  4           0  0  0
    1.5218   -0.0000    0.0000 C   0  0  0  0  0  4           0  0  0
    4.5895    5.8572    1.5785 C   0  0  0  0  0  4           0  0  0
    3.6651    2.5438    1.4681 C   0  0  0  0  0  4           0  0  0
    0.0000   -0.0000    0.0000 C   0  0  0  0  0  4           0  0  0
   -0.6267    0.0000    1.3927 C   0  0  0  0  0  4           0  0  0
   -2.1539   -0.0000    1.3927 C   0  0  0  0  0  4           0  0  0
   -2.7806    0.0000    2.7854 C   0  0  0  0  0  4           0  0  0
   -4.3078   -0.0000    2.7854 C   0  0  0  0  0  4           0  0  0
   -4.9345    0.0000    4.1781 C   0  0  0  0  0  4           0  0  0
   -6.4551   -0.0000    4.1391 C   0  0  0  0  0  4           0  0  0
  1  7  2  0     0  0
  2  8  2  0     0  0
  3  7  1  0     0  0
  3 10  1  0     0  0
  4  8  1  0     0  0
  4 11  1  0     0  0
  5  9  1  0     0  0
  6 12  1  0     0  0
  7 13  1  0     0  0
  8 13  1  0     0  0
  9 10  1  0     0  0
  9 13  2  0     0  0
 10 12  1  0     0  0
 11 14  1  0     0  0
 14 15  1  0     0  0
 15 16  1  0     0  0
 16 17  1  0     0  0
 17 18  1  0     0  0
 18 19  1  0     0  0
 19 20  1  0     0  0
M  END
> <standard_type>
IC50

> <# Confs.>
25

> <canonical_smiles>
OC([C@@H](CO)O1)=C(C(OCCCCCCCC)=O)C1=O

> <standard_relation>
=

> <predicted_activity_value>
4.119186407719209

> <actual_activity_value>
3.9965394678904933

> <Compound>
20

> <publication_ID>
nan

> <standard_units>
nM

> hash
13237113829460550326

$$$$
20_
XXILIB    08252103493D 0   0.00000     0.00000

 20 20  0     1  0            999 V2000
    1.4620    3.3727    1.9295 O   0  0  0  0  0  2           0  0  0
    4.1722    0.5240    0.3025 O   0  0  0  0  0  2           0  0  0
    3.3198    4.5176    2.6388 O   0  0  0  0  0  2           0  0  0
    1.9929    1.1726    0.6770 O   0  0  0  0  0  2           0  0  0
    6.0946    2.5662    1.5254 O   0  0  0  0  0  2           0  0  0
    4.7337    5.6406    0.4926 O   0  0  0  0  0  2           0  0  0
    2.6730    3.4896    2.0141 C   0  0  0  0  0  4           0  0  0
    3.3406    1.2998    0.7504 C   0  0  0  0  0  4           0  0  0
    4.8515    3.0690    1.7815 C   0  0  0  0  0  4           0  0  0
    4.7389    4.3451    2.5220 C   0  0  1  0  0  4           0  0  0
    1.5218   -0.0000    0.0000 C   0  0  0  0  0  4           0  0  0
    5.3168    5.5462    1.7887 C   0  0  0  0  0  4           0  0  0
    3.6651    2.5438    1.4681 C   0  0  0  0  0  4           0  0  0
    0.0000    0.0000    0.0000 C   0  0  0  0  0  4           0  0  0
   -0.6267    0.0000    1.3927 C   0  0  0  0  0  4           0  0  0
   -0.2489   -1.2061    2.2499 C   0  0  0  0  0  4           0  0  0
   -0.8756   -1.2061    3.6426 C   0  0  0  0  0  4           0  0  0
   -0.4977   -2.4122    4.4999 C   0  0  0  0  0  4           0  0  0
   -1.1244   -2.4122    5.8926 C   0  0  0  0  0  4           0  0  0
   -0.7264   -3.6269    6.7170 C   0  0  0  0  0  4           0  0  0
  1  7  2  0     0  0
  2  8  2  0     0  0
  3  7  1  0     0  0
  3 10  1  0     0  0
  4  8  1  0     0  0
  4 11  1  0     0  0
  5  9  1  0     0  0
  6 12  1  0     0  0
  7 13  1  0     0  0
  8 13  1  0     0  0
  9 10  1  0     0  0
  9 13  2  0     0  0
 10 12  1  0     0  0
 11 14  1  0     0  0
 14 15  1  0     0  0
 15 16  1  0     0  0
 16 17  1  0     0  0
 17 18  1  0     0  0
 18 19  1  0     0  0
 19 20  1  0     0  0
M  END
> <standard_type>
IC50

> <# Confs.>
25

> <canonical_smiles>
OC([C@@H](CO)O1)=C(C(OCCCCCCCC)=O)C1=O

> <standard_relation>
=

> <predicted_activity_value>
4.119186407719209

> <actual_activity_value>
3.9965394678904933

> <Compound>
20

> <publication_ID>
nan

> <standard_units>
nM

> hash
13237113829460550326

$$$$
20_
XXILIB    08252103493D 0   0.00000     0.00000

 20 20  0     1  0            999 V2000
    6.0620    0.0141   -2.8462 O   0  0  0  0  0  2           0  0  0
    4.1722    0.0000   -0.6051 O   0  0  0  0  0  2           0  0  0
    4.9634   -0.0289   -4.8604 O   0  0  0  0  0  2           0  0  0
    1.9929    0.0000   -1.3540 O   0  0  0  0  0  2           0  0  0
    1.4923   -0.0393   -4.0249 O   0  0  0  0  0  2           0  0  0
    3.6440    2.3911   -5.3791 O   0  0  0  0  0  2           0  0  0
    5.0304   -0.0011   -3.4965 C   0  0  0  0  0  4           0  0  0
    3.3406    0.0000   -1.5008 C   0  0  0  0  0  4           0  0  0
    2.8568   -0.0099   -3.9992 C   0  0  0  0  0  4           0  0  0
    3.5929   -0.0141   -5.2829 C   0  0  1  0  0  4           0  0  0
    1.5218    0.0000    0.0000 C   0  0  0  0  0  4           0  0  0
    3.3609    1.2210   -6.1403 C   0  0  0  0  0  4           0  0  0
    3.6651   -0.0005   -2.9371 C   0  0  0  0  0  4           0  0  0
    0.0000   -0.0000    0.0000 C   0  0  0  0  0  4           0  0  0
   -0.6267    0.0000    1.3927 C   0  0  0  0  0  4           0  0  0
   -2.1539   -0.0000    1.3927 C   0  0  0  0  0  4           0  0  0
   -2.7806    0.0000    2.7854 C   0  0  0  0  0  4           0  0  0
   -4.3078   -0.0000    2.7854 C   0  0  0  0  0  4           0  0  0
   -4.9345    0.0000    4.1781 C   0  0  0  0  0  4           0  0  0
   -6.4551   -0.0000    4.1391 C   0  0  0  0  0  4           0  0  0
  1  7  2  0     0  0
  2  8  2  0     0  0
  3  7  1  0     0  0
  3 10  1  0     0  0
  4  8  1  0     0  0
  4 11  1  0     0  0
  5  9  1  0     0  0
  6 12  1  0     0  0
  7 13  1  0     0  0
  8 13  1  0     0  0
  9 10  1  0     0  0
  9 13  2  0     0  0
 10 12  1  0     0  0
 11 14  1  0     0  0
 14 15  1  0     0  0
 15 16  1  0     0  0
 16 17  1  0     0  0
 17 18  1  0     0  0
 18 19  1  0     0  0
 19 20  1  0     0  0
M  END
> <standard_type>
IC50

> <# Confs.>
25

> <canonical_smiles>
OC([C@@H](CO)O1)=C(C(OCCCCCCCC)=O)C1=O

> <standard_relation>
=

> <predicted_activity_value>
4.119186407719209

> <actual_activity_value>
3.9965394678904933

> <Compound>
20

> <publication_ID>
nan

> <standard_units>
nM

> hash
13237113829460550326

$$$$
20_
XXILIB    08252103493D 0   0.00000     0.00000

 20 20  0     1  0            999 V2000
    6.0620   -2.4719    1.4109 O   0  0  0  0  0  2           0  0  0
    4.1722   -0.5240    0.3025 O   0  0  0  0  0  2           0  0  0
    4.9634   -4.1948    2.4552 O   0  0  0  0  0  2           0  0  0
    1.9929   -1.1726    0.6770 O   0  0  0  0  0  2           0  0  0
    1.4923   -3.4661    2.0465 O   0  0  0  0  0  2           0  0  0
    3.6440   -5.8540    0.6188 O   0  0  0  0  0  2           0  0  0
    5.0304   -3.0275    1.7492 C   0  0  0  0  0  4           0  0  0
    3.3406   -1.2998    0.7504 C   0  0  0  0  0  4           0  0  0
    2.8568   -3.4585    2.0082 C   0  0  0  0  0  4           0  0  0
    3.5929   -4.5681    2.6537 C   0  0  1  0  0  4           0  0  0
    1.5218   -0.0000   -0.0000 C   0  0  0  0  0  4           0  0  0
    3.3609   -5.9282    2.0128 C   0  0  0  0  0  4           0  0  0
    3.6651   -2.5433    1.4690 C   0  0  0  0  0  4           0  0  0
    0.0000   -0.0000    0.0000 C   0  0  0  0  0  4           0  0  0
   -0.6267    0.0000    1.3927 C   0  0  0  0  0  4           0  0  0
   -2.1539   -0.0000    1.3927 C   0  0  0  0  0  4           0  0  0
   -2.7806    0.0000    2.7854 C   0  0  0  0  0  4           0  0  0
   -4.3078   -0.0000    2.7854 C   0  0  0  0  0  4           0  0  0
   -4.9345    0.0000    4.1781 C   0  0  0  0  0  4           0  0  0
   -6.4551   -0.0000    4.1391 C   0  0  0  0  0  4           0  0  0
  1  7  2  0     0  0
  2  8  2  0     0  0
  3  7  1  0     0  0
  3 10  1  0     0  0
  4  8  1  0     0  0
  4 11  1  0     0  0
  5  9  1  0     0  0
  6 12  1  0     0  0
  7 13  1  0     0  0
  8 13  1  0     0  0
  9 10  1  0     0  0
  9 13  2  0     0  0
 10 12  1  0     0  0
 11 14  1  0     0  0
 14 15  1  0     0  0
 15 16  1  0     0  0
 16 17  1  0     0  0
 17 18  1  0     0  0
 18 19  1  0     0  0
 19 20  1  0     0  0
M  END
> <standard_type>
IC50

> <# Confs.>
25

> <canonical_smiles>
OC([C@@H](CO)O1)=C(C(OCCCCCCCC)=O)C1=O

> <standard_relation>
=

> <predicted_activity_value>
4.119186407719209

> <actual_activity_value>
3.9965394678904933

> <Compound>
20

> <publication_ID>
nan

> <standard_units>
nM

> hash
13237113829460550326

$$$$
20_
XXILIB    08252103493D 0   0.00000     0.00000

 20 20  0     1  0            999 V2000
    1.7630   -3.8892    0.8995 O   0  0  0  0  0  2           0  0  0
    4.1722   -0.5240    0.3025 O   0  0  0  0  0  2           0  0  0
    3.4435   -4.7288    2.2175 O   0  0  0  0  0  2           0  0  0
    1.9929   -1.1726    0.6770 O   0  0  0  0  0  2           0  0  0
    5.8050   -2.0681    2.5183 O   0  0  0  0  0  2           0  0  0
    3.4939   -3.5100    4.7431 O   0  0  0  0  0  2           0  0  0
    2.8311   -3.7604    1.4740 C   0  0  0  0  0  4           0  0  0
    3.3406   -1.2998    0.7504 C   0  0  0  0  0  4           0  0  0
    4.7223   -2.8462    2.2254 C   0  0  0  0  0  4           0  0  0
    4.6683   -4.2227    2.7658 C   0  0  1  0  0  4           0  0  0
    1.5218   -0.0000   -0.0000 C   0  0  0  0  0  4           0  0  0
    4.5895   -4.2956    4.2833 C   0  0  0  0  0  4           0  0  0
    3.6651   -2.5433    1.4690 C   0  0  0  0  0  4           0  0  0
    0.0000   -0.0000    0.0000 C   0  0  0  0  0  4           0  0  0
   -0.6267    0.0000    1.3927 C   0  0  0  0  0  4           0  0  0
   -2.1539   -0.0000    1.3927 C   0  0  0  0  0  4           0  0  0
   -2.7806    0.0000    2.7854 C   0  0  0  0  0  4           0  0  0
   -4.3078   -0.0000    2.7854 C   0  0  0  0  0  4           0  0  0
   -4.9345    0.0000    4.1781 C   0  0  0  0  0  4           0  0  0
   -6.4551   -0.0000    4.1391 C   0  0  0  0  0  4           0  0  0
  1  7  2  0     0  0
  2  8  2  0     0  0
  3  7  1  0     0  0
  3 10  1  0     0  0
  4  8  1  0     0  0
  4 11  1  0     0  0
  5  9  1  0     0  0
  6 12  1  0     0  0
  7 13  1  0     0  0
  8 13  1  0     0  0
  9 10  1  0     0  0
  9 13  2  0     0  0
 10 12  1  0     0  0
 11 14  1  0     0  0
 14 15  1  0     0  0
 15 16  1  0     0  0
 16 17  1  0     0  0
 17 18  1  0     0  0
 18 19  1  0     0  0
 19 20  1  0     0  0
M  END
> <standard_type>
IC50

> <# Confs.>
25

> <canonical_smiles>
OC([C@@H](CO)O1)=C(C(OCCCCCCCC)=O)C1=O

> <standard_relation>
=

> <predicted_activity_value>
4.119186407719209

> <actual_activity_value>
3.9965394678904933

> <Compound>
20

> <publication_ID>
nan

> <standard_units>
nM

> hash
13237113829460550326

$$$$
20_
XXILIB    08252103493D 0   0.00000     0.00000

 20 20  0     1  0            999 V2000
    1.4620    3.3727    1.9295 O   0  0  0  0  0  2           0  0  0
    4.1722    0.5240    0.3025 O   0  0  0  0  0  2           0  0  0
    3.3198    4.5176    2.6388 O   0  0  0  0  0  2           0  0  0
    1.9929    1.1726    0.6770 O   0  0  0  0  0  2           0  0  0
    6.0946    2.5662    1.5254 O   0  0  0  0  0  2           0  0  0
    4.7337    5.6406    0.4926 O   0  0  0  0  0  2           0  0  0
    2.6730    3.4896    2.0141 C   0  0  0  0  0  4           0  0  0
    3.3406    1.2998    0.7504 C   0  0  0  0  0  4           0  0  0
    4.8515    3.0690    1.7815 C   0  0  0  0  0  4           0  0  0
    4.7389    4.3451    2.5220 C   0  0  1  0  0  4           0  0  0
    1.5218   -0.0000    0.0000 C   0  0  0  0  0  4           0  0  0
    5.3168    5.5462    1.7887 C   0  0  0  0  0  4           0  0  0
    3.6651    2.5438    1.4681 C   0  0  0  0  0  4           0  0  0
    0.0000    0.0000    0.0000 C   0  0  0  0  0  4           0  0  0
   -0.6267    0.0000    1.3927 C   0  0  0  0  0  4           0  0  0
   -2.1539   -0.0000    1.3927 C   0  0  0  0  0  4           0  0  0
   -2.7806    0.0000    2.7854 C   0  0  0  0  0  4           0  0  0
   -2.4028    1.2061    3.6426 C   0  0  0  0  0  4           0  0  0
   -3.0295    1.2061    5.0353 C   0  0  0  0  0  4           0  0  0
   -2.6314    2.4208    5.8597 C   0  0  0  0  0  4           0  0  0
  1  7  2  0     0  0
  2  8  2  0     0  0
  3  7  1  0     0  0
  3 10  1  0     0  0
  4  8  1  0     0  0
  4 11  1  0     0  0
  5  9  1  0     0  0
  6 12  1  0     0  0
  7 13  1  0     0  0
  8 13  1  0     0  0
  9 10  1  0     0  0
  9 13  2  0     0  0
 10 12  1  0     0  0
 11 14  1  0     0  0
 14 15  1  0     0  0
 15 16  1  0     0  0
 16 17  1  0     0  0
 17 18  1  0     0  0
 18 19  1  0     0  0
 19 20  1  0     0  0
M  END
> <standard_type>
IC50

> <# Confs.>
25

> <canonical_smiles>
OC([C@@H](CO)O1)=C(C(OCCCCCCCC)=O)C1=O

> <standard_relation>
=

> <predicted_activity_value>
4.119186407719209

> <actual_activity_value>
3.9965394678904933

> <Compound>
20

> <publication_ID>
nan

> <standard_units>
nM

> hash
13237113829460550326

$$$$
20_
XXILIB    08252103493D 0   0.00000     0.00000

 20 20  0     1  0            999 V2000
    1.6380    3.6519    1.3233 O   0  0  0  0  0  2           0  0  0
    3.8806    0.0358    1.3511 O   0  0  0  0  0  2           0  0  0
    3.3100    4.5276    2.6283 O   0  0  0  0  0  2           0  0  0
    1.9929    1.1726    0.6770 O   0  0  0  0  0  2           0  0  0
    5.6543    1.8670    3.0429 O   0  0  0  0  0  2           0  0  0
    5.6936    4.8542    1.1867 O   0  0  0  0  0  2           0  0  0
    2.7032    3.5397    1.9064 C   0  0  0  0  0  4           0  0  0
    3.1856    1.0403    1.3076 C   0  0  0  0  0  4           0  0  0
    4.5972    2.6515    2.6815 C   0  0  0  0  0  4           0  0  0
    4.5579    4.0536    3.1529 C   0  0  1  0  0  4           0  0  0
    1.5218    0.0000   -0.0000 C   0  0  0  0  0  4           0  0  0
    5.6782    4.9274    2.6091 C   0  0  0  0  0  4           0  0  0
    3.5313    2.3193    1.9500 C   0  0  0  0  0  4           0  0  0
    0.0000   -0.0000    0.0000 C   0  0  0  0  0  4           0  0  0
   -0.6267    0.0000    1.3927 C   0  0  0  0  0  4           0  0  0
   -2.1539   -0.0000    1.3927 C   0  0  0  0  0  4           0  0  0
   -2.7806    0.0000    2.7854 C   0  0  0  0  0  4           0  0  0
   -4.3078   -0.0000    2.7854 C   0  0  0  0  0  4           0  0  0
   -4.9345    0.0000    4.1781 C   0  0  0  0  0  4           0  0  0
   -6.4551   -0.0000    4.1391 C   0  0  0  0  0  4           0  0  0
  1  7  2  0     0  0
  2  8  2  0     0  0
  3  7  1  0     0  0
  3 10  1  0     0  0
  4  8  1  0     0  0
  4 11  1  0     0  0
  5  9  1  0     0  0
  6 12  1  0     0  0
  7 13  1  0     0  0
  8 13  1  0     0  0
  9 10  1  0     0  0
  9 13  2  0     0  0
 10 12  1  0     0  0
 11 14  1  0     0  0
 14 15  1  0     0  0
 15 16  1  0     0  0
 16 17  1  0     0  0
 17 18  1  0     0  0
 18 19  1  0     0  0
 19 20  1  0     0  0
M  END
> <standard_type>
IC50

> <# Confs.>
25

> <canonical_smiles>
OC([C@@H](CO)O1)=C(C(OCCCCCCCC)=O)C1=O

> <standard_relation>
=

> <predicted_activity_value>
4.119186407719209

> <actual_activity_value>
3.9965394678904933

> <Compound>
20

> <publication_ID>
nan

> <standard_units>
nM

> hash
13237113829460550326

$$$$
20_
XXILIB    08252103493D 0   0.00000     0.00000

 20 20  0     1  0            999 V2000
    1.4620   -0.0154   -3.8855 O   0  0  0  0  0  2           0  0  0
    4.1722    0.0000   -0.6051 O   0  0  0  0  0  2           0  0  0
    3.3198    0.0264   -5.2318 O   0  0  0  0  0  2           0  0  0
    1.9929    0.0000   -1.3540 O   0  0  0  0  0  2           0  0  0
    6.0946    0.0379   -2.9851 O   0  0  0  0  0  2           0  0  0
    4.7337   -2.3937   -5.1312 O   0  0  0  0  0  2           0  0  0
    2.6730   -0.0005   -4.0292 C   0  0  0  0  0  4           0  0  0
    3.3406    0.0000   -1.5008 C   0  0  0  0  0  4           0  0  0
    4.8515    0.0083   -3.5485 C   0  0  0  0  0  4           0  0  0
    4.7389    0.0115   -5.0240 C   0  0  1  0  0  4           0  0  0
    1.5218    0.0000    0.0000 C   0  0  0  0  0  4           0  0  0
    5.3168   -1.2240   -5.6976 C   0  0  0  0  0  4           0  0  0
    3.6651   -0.0005   -2.9371 C   0  0  0  0  0  4           0  0  0
    0.0000    0.0000    0.0000 C   0  0  0  0  0  4           0  0  0
   -0.6267   -0.0000    1.3927 C   0  0  0  0  0  4           0  0  0
   -0.2489    1.2061    2.2499 C   0  0  0  0  0  4           0  0  0
   -0.8756    1.2061    3.6426 C   0  0  0  0  0  4           0  0  0
   -0.4977    2.4122    4.4999 C   0  0  0  0  0  4           0  0  0
   -1.1244    2.4122    5.8926 C   0  0  0  0  0  4           0  0  0
   -0.7264    3.6269    6.7170 C   0  0  0  0  0  4           0  0  0
  1  7  2  0     0  0
  2  8  2  0     0  0
  3  7  1  0     0  0
  3 10  1  0     0  0
  4  8  1  0     0  0
  4 11  1  0     0  0
  5  9  1  0     0  0
  6 12  1  0     0  0
  7 13  1  0     0  0
  8 13  1  0     0  0
  9 10  1  0     0  0
  9 13  2  0     0  0
 10 12  1  0     0  0
 11 14  1  0     0  0
 14 15  1  0     0  0
 15 16  1  0     0  0
 16 17  1  0     0  0
 17 18  1  0     0  0
 18 19  1  0     0  0
 19 20  1  0     0  0
M  END
> <standard_type>
IC50

> <# Confs.>
25

> <canonical_smiles>
OC([C@@H](CO)O1)=C(C(OCCCCCCCC)=O)C1=O

> <standard_relation>
=

> <predicted_activity_value>
4.119186407719209

> <actual_activity_value>
3.9965394678904933

> <Compound>
20

> <publication_ID>
nan

> <standard_units>
nM

> hash
13237113829460550326

$$$$
20_
XXILIB    08252103493D 0   0.00000     0.00000

 20 20  0     1  0            999 V2000
    2.7358   -1.3334   -3.4423 O   0  0  0  0  0  2           0  0  0
    1.9958    2.3044   -1.3624 O   0  0  0  0  0  2           0  0  0
    3.3148   -0.0211   -5.2335 O   0  0  0  0  0  2           0  0  0
    1.9929    0.0000   -1.3540 O   0  0  0  0  0  2           0  0  0
    2.9063    3.3378   -4.0945 O   0  0  0  0  0  2           0  0  0
    5.7220    1.3473   -4.7873 O   0  0  0  0  0  2           0  0  0
    2.8971   -0.2368   -3.9512 C   0  0  0  0  0  4           0  0  0
    2.1840    1.2246   -1.9033 C   0  0  0  0  0  4           0  0  0
    2.9749    1.9787   -4.2015 C   0  0  0  0  0  4           0  0  0
    3.4176    1.3874   -5.4837 C   0  0  1  0  0  4           0  0  0
    1.5218    0.0000   -0.0000 C   0  0  0  0  0  4           0  0  0
    4.8561    1.7119   -5.8579 C   0  0  0  0  0  4           0  0  0
    2.6653    1.0591   -3.2849 C   0  0  0  0  0  4           0  0  0
    0.0000   -0.0000    0.0000 C   0  0  0  0  0  4           0  0  0
   -0.6267    0.0000    1.3927 C   0  0  0  0  0  4           0  0  0
   -2.1539   -0.0000    1.3927 C   0  0  0  0  0  4           0  0  0
   -2.7806    0.0000    2.7854 C   0  0  0  0  0  4           0  0  0
   -4.3078   -0.0000    2.7854 C   0  0  0  0  0  4           0  0  0
   -4.9345    0.0000    4.1781 C   0  0  0  0  0  4           0  0  0
   -6.4551   -0.0000    4.1391 C   0  0  0  0  0  4           0  0  0
  1  7  2  0     0  0
  2  8  2  0     0  0
  3  7  1  0     0  0
  3 10  1  0     0  0
  4  8  1  0     0  0
  4 11  1  0     0  0
  5  9  1  0     0  0
  6 12  1  0     0  0
  7 13  1  0     0  0
  8 13  1  0     0  0
  9 10  1  0     0  0
  9 13  2  0     0  0
 10 12  1  0     0  0
 11 14  1  0     0  0
 14 15  1  0     0  0
 15 16  1  0     0  0
 16 17  1  0     0  0
 17 18  1  0     0  0
 18 19  1  0     0  0
 19 20  1  0     0  0
M  END
> <standard_type>
IC50

> <# Confs.>
25

> <canonical_smiles>
OC([C@@H](CO)O1)=C(C(OCCCCCCCC)=O)C1=O

> <standard_relation>
=

> <predicted_activity_value>
4.119186407719209

> <actual_activity_value>
3.9965394678904933

> <Compound>
20

> <publication_ID>
nan

> <standard_units>
nM

> hash
13237113829460550326

$$$$
20_
XXILIB    08252103493D 0   0.00000     0.00000

 20 20  0     1  0            999 V2000
    1.4620   -3.3573    1.9561 O   0  0  0  0  0  2           0  0  0
    4.1722   -0.5240    0.3025 O   0  0  0  0  0  2           0  0  0
    3.3198   -4.5441    2.5930 O   0  0  0  0  0  2           0  0  0
    1.9929   -1.1726    0.6770 O   0  0  0  0  0  2           0  0  0
    6.0946   -2.6041    1.4597 O   0  0  0  0  0  2           0  0  0
    4.7337   -3.2469    4.6386 O   0  0  0  0  0  2           0  0  0
    2.6730   -3.4891    2.0150 C   0  0  0  0  0  4           0  0  0
    3.3406   -1.2998    0.7504 C   0  0  0  0  0  4           0  0  0
    4.8515   -3.0773    1.7671 C   0  0  0  0  0  4           0  0  0
    4.7389   -4.3567    2.5020 C   0  0  1  0  0  4           0  0  0
    1.5218   -0.0000   -0.0000 C   0  0  0  0  0  4           0  0  0
    5.3168   -4.3222    3.9088 C   0  0  0  0  0  4           0  0  0
    3.6651   -2.5433    1.4690 C   0  0  0  0  0  4           0  0  0
    0.0000    0.0000    0.0000 C   0  0  0  0  0  4           0  0  0
   -0.6267   -0.0000    1.3927 C   0  0  0  0  0  4           0  0  0
   -2.1539   -0.0000    1.3927 C   0  0  0  0  0  4           0  0  0
   -2.7806    0.0000    2.7854 C   0  0  0  0  0  4           0  0  0
   -2.4028   -1.2061    3.6426 C   0  0  0  0  0  4           0  0  0
   -3.0295   -1.2061    5.0353 C   0  0  0  0  0  4           0  0  0
   -2.6314   -2.4208    5.8597 C   0  0  0  0  0  4           0  0  0
  1  7  2  0     0  0
  2  8  2  0     0  0
  3  7  1  0     0  0
  3 10  1  0     0  0
  4  8  1  0     0  0
  4 11  1  0     0  0
  5  9  1  0     0  0
  6 12  1  0     0  0
  7 13  1  0     0  0
  8 13  1  0     0  0
  9 10  1  0     0  0
  9 13  2  0     0  0
 10 12  1  0     0  0
 11 14  1  0     0  0
 14 15  1  0     0  0
 15 16  1  0     0  0
 16 17  1  0     0  0
 17 18  1  0     0  0
 18 19  1  0     0  0
 19 20  1  0     0  0
M  END
> <standard_type>
IC50

> <# Confs.>
25

> <canonical_smiles>
OC([C@@H](CO)O1)=C(C(OCCCCCCCC)=O)C1=O

> <standard_relation>
=

> <predicted_activity_value>
4.119186407719209

> <actual_activity_value>
3.9965394678904933

> <Compound>
20

> <publication_ID>
nan

> <standard_units>
nM

> hash
13237113829460550326

$$$$
20_
XXILIB    08252103493D 0   0.00000     0.00000

 20 20  0     1  0            999 V2000
    1.4620   -0.0154   -3.8855 O   0  0  0  0  0  2           0  0  0
    4.1722    0.0000   -0.6051 O   0  0  0  0  0  2           0  0  0
    3.3198    0.0264   -5.2318 O   0  0  0  0  0  2           0  0  0
    1.9929    0.0000   -1.3540 O   0  0  0  0  0  2           0  0  0
    6.0946    0.0379   -2.9851 O   0  0  0  0  0  2           0  0  0
    4.7337   -2.3937   -5.1312 O   0  0  0  0  0  2           0  0  0
    2.6730   -0.0005   -4.0292 C   0  0  0  0  0  4           0  0  0
    3.3406    0.0000   -1.5008 C   0  0  0  0  0  4           0  0  0
    4.8515    0.0083   -3.5485 C   0  0  0  0  0  4           0  0  0
    4.7389    0.0115   -5.0240 C   0  0  1  0  0  4           0  0  0
    1.5218    0.0000    0.0000 C   0  0  0  0  0  4           0  0  0
    5.3168   -1.2240   -5.6976 C   0  0  0  0  0  4           0  0  0
    3.6651   -0.0005   -2.9371 C   0  0  0  0  0  4           0  0  0
    0.0000    0.0000    0.0000 C   0  0  0  0  0  4           0  0  0
   -0.6267    0.0000    1.3927 C   0  0  0  0  0  4           0  0  0
   -0.2489   -1.2061    2.2499 C   0  0  0  0  0  4           0  0  0
   -0.8756   -1.2061    3.6426 C   0  0  0  0  0  4           0  0  0
   -0.4977   -2.4122    4.4999 C   0  0  0  0  0  4           0  0  0
   -1.1244   -2.4122    5.8926 C   0  0  0  0  0  4           0  0  0
   -0.7264   -3.6269    6.7170 C   0  0  0  0  0  4           0  0  0
  1  7  2  0     0  0
  2  8  2  0     0  0
  3  7  1  0     0  0
  3 10  1  0     0  0
  4  8  1  0     0  0
  4 11  1  0     0  0
  5  9  1  0     0  0
  6 12  1  0     0  0
  7 13  1  0     0  0
  8 13  1  0     0  0
  9 10  1  0     0  0
  9 13  2  0     0  0
 10 12  1  0     0  0
 11 14  1  0     0  0
 14 15  1  0     0  0
 15 16  1  0     0  0
 16 17  1  0     0  0
 17 18  1  0     0  0
 18 19  1  0     0  0
 19 20  1  0     0  0
M  END
> <standard_type>
IC50

> <# Confs.>
25

> <canonical_smiles>
OC([C@@H](CO)O1)=C(C(OCCCCCCCC)=O)C1=O

> <standard_relation>
=

> <predicted_activity_value>
4.119186407719209

> <actual_activity_value>
3.9965394678904933

> <Compound>
20

> <publication_ID>
nan

> <standard_units>
nM

> hash
13237113829460550326

$$$$
20_
XXILIB    08252103493D 0   0.00000     0.00000

 20 20  0     1  0            999 V2000
    1.4620   -3.3573    1.9561 O   0  0  0  0  0  2           0  0  0
    4.1722   -0.5240    0.3025 O   0  0  0  0  0  2           0  0  0
    3.3198   -4.5441    2.5930 O   0  0  0  0  0  2           0  0  0
    1.9929   -1.1726    0.6770 O   0  0  0  0  0  2           0  0  0
    6.0946   -2.6041    1.4597 O   0  0  0  0  0  2           0  0  0
    4.7337   -3.2469    4.6386 O   0  0  0  0  0  2           0  0  0
    2.6730   -3.4891    2.0150 C   0  0  0  0  0  4           0  0  0
    3.3406   -1.2998    0.7504 C   0  0  0  0  0  4           0  0  0
    4.8515   -3.0773    1.7671 C   0  0  0  0  0  4           0  0  0
    4.7389   -4.3567    2.5020 C   0  0  1  0  0  4           0  0  0
    1.5218   -0.0000   -0.0000 C   0  0  0  0  0  4           0  0  0
    5.3168   -4.3222    3.9088 C   0  0  0  0  0  4           0  0  0
    3.6651   -2.5433    1.4690 C   0  0  0  0  0  4           0  0  0
    0.0000    0.0000    0.0000 C   0  0  0  0  0  4           0  0  0
   -0.6267   -0.0000    1.3927 C   0  0  0  0  0  4           0  0  0
   -2.1539    0.0000    1.3927 C   0  0  0  0  0  4           0  0  0
   -2.7806   -1.2061    0.6963 C   0  0  0  0  0  4           0  0  0
   -4.3078   -1.2061    0.6963 C   0  0  0  0  0  4           0  0  0
   -4.9345   -2.4122   -0.0000 C   0  0  0  0  0  4           0  0  0
   -6.4551   -2.3785    0.0195 C   0  0  0  0  0  4           0  0  0
  1  7  2  0     0  0
  2  8  2  0     0  0
  3  7  1  0     0  0
  3 10  1  0     0  0
  4  8  1  0     0  0
  4 11  1  0     0  0
  5  9  1  0     0  0
  6 12  1  0     0  0
  7 13  1  0     0  0
  8 13  1  0     0  0
  9 10  1  0     0  0
  9 13  2  0     0  0
 10 12  1  0     0  0
 11 14  1  0     0  0
 14 15  1  0     0  0
 15 16  1  0     0  0
 16 17  1  0     0  0
 17 18  1  0     0  0
 18 19  1  0     0  0
 19 20  1  0     0  0
M  END
> <standard_type>
IC50

> <# Confs.>
25

> <canonical_smiles>
OC([C@@H](CO)O1)=C(C(OCCCCCCCC)=O)C1=O

> <standard_relation>
=

> <predicted_activity_value>
4.119186407719209

> <actual_activity_value>
3.9965394678904933

> <Compound>
20

> <publication_ID>
nan

> <standard_units>
nM

> hash
13237113829460550326

$$$$
20_
XXILIB    08252103493D 0   0.00000     0.00000

 20 20  0     1  0            999 V2000
    1.4620   -3.3573    1.9561 O   0  0  0  0  0  2           0  0  0
    4.1722   -0.5240    0.3025 O   0  0  0  0  0  2           0  0  0
    3.3198   -4.5441    2.5930 O   0  0  0  0  0  2           0  0  0
    1.9929   -1.1726    0.6770 O   0  0  0  0  0  2           0  0  0
    6.0946   -2.6041    1.4597 O   0  0  0  0  0  2           0  0  0
    4.7337   -3.2469    4.6386 O   0  0  0  0  0  2           0  0  0
    2.6730   -3.4891    2.0150 C   0  0  0  0  0  4           0  0  0
    3.3406   -1.2998    0.7504 C   0  0  0  0  0  4           0  0  0
    4.8515   -3.0773    1.7671 C   0  0  0  0  0  4           0  0  0
    4.7389   -4.3567    2.5020 C   0  0  1  0  0  4           0  0  0
    1.5218   -0.0000   -0.0000 C   0  0  0  0  0  4           0  0  0
    5.3168   -4.3222    3.9088 C   0  0  0  0  0  4           0  0  0
    3.6651   -2.5433    1.4690 C   0  0  0  0  0  4           0  0  0
    0.0000    0.0000    0.0000 C   0  0  0  0  0  4           0  0  0
   -0.6267    0.0000    1.3927 C   0  0  0  0  0  4           0  0  0
   -2.1539   -0.0000    1.3927 C   0  0  0  0  0  4           0  0  0
   -2.7806    0.0000    2.7854 C   0  0  0  0  0  4           0  0  0
   -2.4028    1.2061    3.6426 C   0  0  0  0  0  4           0  0  0
   -3.0295    1.2061    5.0353 C   0  0  0  0  0  4           0  0  0
   -2.6314    2.4208    5.8597 C   0  0  0  0  0  4           0  0  0
  1  7  2  0     0  0
  2  8  2  0     0  0
  3  7  1  0     0  0
  3 10  1  0     0  0
  4  8  1  0     0  0
  4 11  1  0     0  0
  5  9  1  0     0  0
  6 12  1  0     0  0
  7 13  1  0     0  0
  8 13  1  0     0  0
  9 10  1  0     0  0
  9 13  2  0     0  0
 10 12  1  0     0  0
 11 14  1  0     0  0
 14 15  1  0     0  0
 15 16  1  0     0  0
 16 17  1  0     0  0
 17 18  1  0     0  0
 18 19  1  0     0  0
 19 20  1  0     0  0
M  END
> <standard_type>
IC50

> <# Confs.>
25

> <canonical_smiles>
OC([C@@H](CO)O1)=C(C(OCCCCCCCC)=O)C1=O

> <standard_relation>
=

> <predicted_activity_value>
4.119186407719209

> <actual_activity_value>
3.9965394678904933

> <Compound>
20

> <publication_ID>
nan

> <standard_units>
nM

> hash
13237113829460550326

$$$$
20_
XXILIB    08252103493D 0   0.00000     0.00000

 20 20  0     1  0            999 V2000
    1.4620   -3.3573    1.9561 O   0  0  0  0  0  2           0  0  0
    4.1722   -0.5240    0.3025 O   0  0  0  0  0  2           0  0  0
    3.3198   -4.5441    2.5930 O   0  0  0  0  0  2           0  0  0
    1.9929   -1.1726    0.6770 O   0  0  0  0  0  2           0  0  0
    6.0946   -2.6041    1.4597 O   0  0  0  0  0  2           0  0  0
    4.7337   -3.2469    4.6386 O   0  0  0  0  0  2           0  0  0
    2.6730   -3.4891    2.0150 C   0  0  0  0  0  4           0  0  0
    3.3406   -1.2998    0.7504 C   0  0  0  0  0  4           0  0  0
    4.8515   -3.0773    1.7671 C   0  0  0  0  0  4           0  0  0
    4.7389   -4.3567    2.5020 C   0  0  1  0  0  4           0  0  0
    1.5218   -0.0000   -0.0000 C   0  0  0  0  0  4           0  0  0
    5.3168   -4.3222    3.9088 C   0  0  0  0  0  4           0  0  0
    3.6651   -2.5433    1.4690 C   0  0  0  0  0  4           0  0  0
    0.0000   -0.0000    0.0000 C   0  0  0  0  0  4           0  0  0
   -0.6267    0.0000    1.3927 C   0  0  0  0  0  4           0  0  0
   -2.1539   -0.0000    1.3927 C   0  0  0  0  0  4           0  0  0
   -2.7806    0.0000    2.7854 C   0  0  0  0  0  4           0  0  0
   -4.3078   -0.0000    2.7854 C   0  0  0  0  0  4           0  0  0
   -4.9345   -1.2061    2.0890 C   0  0  0  0  0  4           0  0  0
   -6.4551   -1.1724    2.1085 C   0  0  0  0  0  4           0  0  0
  1  7  2  0     0  0
  2  8  2  0     0  0
  3  7  1  0     0  0
  3 10  1  0     0  0
  4  8  1  0     0  0
  4 11  1  0     0  0
  5  9  1  0     0  0
  6 12  1  0     0  0
  7 13  1  0     0  0
  8 13  1  0     0  0
  9 10  1  0     0  0
  9 13  2  0     0  0
 10 12  1  0     0  0
 11 14  1  0     0  0
 14 15  1  0     0  0
 15 16  1  0     0  0
 16 17  1  0     0  0
 17 18  1  0     0  0
 18 19  1  0     0  0
 19 20  1  0     0  0
M  END
> <standard_type>
IC50

> <# Confs.>
25

> <canonical_smiles>
OC([C@@H](CO)O1)=C(C(OCCCCCCCC)=O)C1=O

> <standard_relation>
=

> <predicted_activity_value>
4.119186407719209

> <actual_activity_value>
3.9965394678904933

> <Compound>
20

> <publication_ID>
nan

> <standard_units>
nM

> hash
13237113829460550326

$$$$
20_
XXILIB    08252103493D 0   0.00000     0.00000

 20 20  0     1  0            999 V2000
    1.4620   -0.0154   -3.8855 O   0  0  0  0  0  2           0  0  0
    4.1722    0.0000   -0.6051 O   0  0  0  0  0  2           0  0  0
    3.3198    0.0264   -5.2318 O   0  0  0  0  0  2           0  0  0
    1.9929    0.0000   -1.3540 O   0  0  0  0  0  2           0  0  0
    6.0946    0.0379   -2.9851 O   0  0  0  0  0  2           0  0  0
    4.7337   -2.3937   -5.1312 O   0  0  0  0  0  2           0  0  0
    2.6730   -0.0005   -4.0292 C   0  0  0  0  0  4           0  0  0
    3.3406    0.0000   -1.5008 C   0  0  0  0  0  4           0  0  0
    4.8515    0.0083   -3.5485 C   0  0  0  0  0  4           0  0  0
    4.7389    0.0115   -5.0240 C   0  0  1  0  0  4           0  0  0
    1.5218    0.0000    0.0000 C   0  0  0  0  0  4           0  0  0
    5.3168   -1.2240   -5.6976 C   0  0  0  0  0  4           0  0  0
    3.6651   -0.0005   -2.9371 C   0  0  0  0  0  4           0  0  0
    0.0000    0.0000    0.0000 C   0  0  0  0  0  4           0  0  0
   -0.6267   -0.0000    1.3927 C   0  0  0  0  0  4           0  0  0
   -2.1539    0.0000    1.3927 C   0  0  0  0  0  4           0  0  0
   -2.7806   -1.2061    0.6963 C   0  0  0  0  0  4           0  0  0
   -4.3078   -1.2061    0.6963 C   0  0  0  0  0  4           0  0  0
   -4.9345   -2.4122   -0.0000 C   0  0  0  0  0  4           0  0  0
   -6.4551   -2.3785    0.0195 C   0  0  0  0  0  4           0  0  0
  1  7  2  0     0  0
  2  8  2  0     0  0
  3  7  1  0     0  0
  3 10  1  0     0  0
  4  8  1  0     0  0
  4 11  1  0     0  0
  5  9  1  0     0  0
  6 12  1  0     0  0
  7 13  1  0     0  0
  8 13  1  0     0  0
  9 10  1  0     0  0
  9 13  2  0     0  0
 10 12  1  0     0  0
 11 14  1  0     0  0
 14 15  1  0     0  0
 15 16  1  0     0  0
 16 17  1  0     0  0
 17 18  1  0     0  0
 18 19  1  0     0  0
 19 20  1  0     0  0
M  END
> <standard_type>
IC50

> <# Confs.>
25

> <canonical_smiles>
OC([C@@H](CO)O1)=C(C(OCCCCCCCC)=O)C1=O

> <standard_relation>
=

> <predicted_activity_value>
4.119186407719209

> <actual_activity_value>
3.9965394678904933

> <Compound>
20

> <publication_ID>
nan

> <standard_units>
nM

> hash
13237113829460550326

$$$$
20_
XXILIB    08252103493D 0   0.00000     0.00000

 20 20  0     1  0            999 V2000
    1.4620   -0.0154   -3.8855 O   0  0  0  0  0  2           0  0  0
    4.1722    0.0000   -0.6051 O   0  0  0  0  0  2           0  0  0
    3.3198    0.0264   -5.2318 O   0  0  0  0  0  2           0  0  0
    1.9929    0.0000   -1.3540 O   0  0  0  0  0  2           0  0  0
    6.0946    0.0379   -2.9851 O   0  0  0  0  0  2           0  0  0
    4.7337   -2.3937   -5.1312 O   0  0  0  0  0  2           0  0  0
    2.6730   -0.0005   -4.0292 C   0  0  0  0  0  4           0  0  0
    3.3406    0.0000   -1.5008 C   0  0  0  0  0  4           0  0  0
    4.8515    0.0083   -3.5485 C   0  0  0  0  0  4           0  0  0
    4.7389    0.0115   -5.0240 C   0  0  1  0  0  4           0  0  0
    1.5218    0.0000    0.0000 C   0  0  0  0  0  4           0  0  0
    5.3168   -1.2240   -5.6976 C   0  0  0  0  0  4           0  0  0
    3.6651   -0.0005   -2.9371 C   0  0  0  0  0  4           0  0  0
    0.0000   -0.0000    0.0000 C   0  0  0  0  0  4           0  0  0
   -0.6267    0.0000    1.3927 C   0  0  0  0  0  4           0  0  0
   -2.1539   -0.0000    1.3927 C   0  0  0  0  0  4           0  0  0
   -2.7806    0.0000    2.7854 C   0  0  0  0  0  4           0  0  0
   -4.3078   -0.0000    2.7854 C   0  0  0  0  0  4           0  0  0
   -4.9345   -1.2061    2.0890 C   0  0  0  0  0  4           0  0  0
   -6.4551   -1.1724    2.1085 C   0  0  0  0  0  4           0  0  0
  1  7  2  0     0  0
  2  8  2  0     0  0
  3  7  1  0     0  0
  3 10  1  0     0  0
  4  8  1  0     0  0
  4 11  1  0     0  0
  5  9  1  0     0  0
  6 12  1  0     0  0
  7 13  1  0     0  0
  8 13  1  0     0  0
  9 10  1  0     0  0
  9 13  2  0     0  0
 10 12  1  0     0  0
 11 14  1  0     0  0
 14 15  1  0     0  0
 15 16  1  0     0  0
 16 17  1  0     0  0
 17 18  1  0     0  0
 18 19  1  0     0  0
 19 20  1  0     0  0
M  END
> <standard_type>
IC50

> <# Confs.>
25

> <canonical_smiles>
OC([C@@H](CO)O1)=C(C(OCCCCCCCC)=O)C1=O

> <standard_relation>
=

> <predicted_activity_value>
4.119186407719209

> <actual_activity_value>
3.9965394678904933

> <Compound>
20

> <publication_ID>
nan

> <standard_units>
nM

> hash
13237113829460550326

$$$$
20_
XXILIB    08252103493D 0   0.00000     0.00000

 20 20  0     1  0            999 V2000
    1.4620   -0.0154   -3.8855 O   0  0  0  0  0  2           0  0  0
    4.1722    0.0000   -0.6051 O   0  0  0  0  0  2           0  0  0
    3.3198    0.0264   -5.2318 O   0  0  0  0  0  2           0  0  0
    1.9929    0.0000   -1.3540 O   0  0  0  0  0  2           0  0  0
    6.0946    0.0379   -2.9851 O   0  0  0  0  0  2           0  0  0
    4.7337   -2.3937   -5.1312 O   0  0  0  0  0  2           0  0  0
    2.6730   -0.0005   -4.0292 C   0  0  0  0  0  4           0  0  0
    3.3406    0.0000   -1.5008 C   0  0  0  0  0  4           0  0  0
    4.8515    0.0083   -3.5485 C   0  0  0  0  0  4           0  0  0
    4.7389    0.0115   -5.0240 C   0  0  1  0  0  4           0  0  0
    1.5218    0.0000    0.0000 C   0  0  0  0  0  4           0  0  0
    5.3168   -1.2240   -5.6976 C   0  0  0  0  0  4           0  0  0
    3.6651   -0.0005   -2.9371 C   0  0  0  0  0  4           0  0  0
    0.0000    0.0000    0.0000 C   0  0  0  0  0  4           0  0  0
   -0.6267    0.0000    1.3927 C   0  0  0  0  0  4           0  0  0
   -2.1539   -0.0000    1.3927 C   0  0  0  0  0  4           0  0  0
   -2.7806    0.0000    2.7854 C   0  0  0  0  0  4           0  0  0
   -2.4028    1.2061    3.6426 C   0  0  0  0  0  4           0  0  0
   -3.0295    1.2061    5.0353 C   0  0  0  0  0  4           0  0  0
   -2.6314    2.4208    5.8597 C   0  0  0  0  0  4           0  0  0
  1  7  2  0     0  0
  2  8  2  0     0  0
  3  7  1  0     0  0
  3 10  1  0     0  0
  4  8  1  0     0  0
  4 11  1  0     0  0
  5  9  1  0     0  0
  6 12  1  0     0  0
  7 13  1  0     0  0
  8 13  1  0     0  0
  9 10  1  0     0  0
  9 13  2  0     0  0
 10 12  1  0     0  0
 11 14  1  0     0  0
 14 15  1  0     0  0
 15 16  1  0     0  0
 16 17  1  0     0  0
 17 18  1  0     0  0
 18 19  1  0     0  0
 19 20  1  0     0  0
M  END
> <standard_type>
IC50

> <# Confs.>
25

> <canonical_smiles>
OC([C@@H](CO)O1)=C(C(OCCCCCCCC)=O)C1=O

> <standard_relation>
=

> <predicted_activity_value>
4.119186407719209

> <actual_activity_value>
3.9965394678904933

> <Compound>
20

> <publication_ID>
nan

> <standard_units>
nM

> hash
13237113829460550326

$$$$
19_
XXILIB    08252103493D 0   0.00000     0.00000

 24 26  0     1  0            999 V2000
   -3.3218   -2.1160    4.3884 O   0  0  0  0  0  2           0  0  0
   -6.7733    1.8567    3.6210 O   0  0  0  0  0  2           0  0  0
   -4.3447    2.0767    2.3593 O   0  0  0  0  0  2           0  0  0
   -5.6646   -2.2049    5.7580 O   0  0  0  0  0  2           0  0  0
   -0.2079   -0.0208    2.5274 N   0  0  0  0  0  3           0  0  0
   -0.6862   -0.0000    1.2340 C   0  0  0  0  0  4           0  0  0
   -1.2377   -0.0221    3.4250 C   0  0  0  0  0  4           0  0  0
   -2.0869    0.0130    1.3275 C   0  0  0  0  0  4           0  0  0
    0.0000    0.0000    0.0000 C   0  0  0  0  0  4           0  0  0
   -2.4253   -0.0023    2.7237 C   0  0  0  0  0  4           0  0  0
   -2.8313    0.0353    0.1265 C   0  0  0  0  0  4           0  0  0
   -0.7816    0.0281   -1.1666 C   0  0  0  0  0  4           0  0  0
   -2.1711    0.0428   -1.1046 C   0  0  0  0  0  4           0  0  0
   -4.0784   -1.1603    4.2307 C   0  0  0  0  0  4           0  0  0
   -5.9529    0.9650    3.8143 C   0  0  0  0  0  4           0  0  0
   -4.6218    0.9811    3.1586 C   0  0  0  0  0  4           0  0  0
   -5.3918   -1.1447    4.9180 C   0  0  0  0  0  4           0  0  0
   -3.7191   -0.0011    3.3441 C   0  0  0  0  0  4           0  0  0
    1.4560   -0.0000   -0.0000 C   0  0  0  0  0  4           0  0  0
    1.9435   -2.1589    1.1924 C   0  0  0  0  0  4           0  0  0
   -6.2623   -0.1535    4.7179 C   0  0  0  0  0  4           0  0  0
    2.2798   -0.9195    0.5309 C   0  0  0  0  0  4           0  0  0
    0.9590   -2.9706    0.7737 C   0  0  0  0  0  4           0  0  0
    2.7377   -2.4642    2.4306 C   0  0  0  0  0  4           0  0  0
  1 14  2  0     0  0
  2 15  2  0     0  0
  3 16  1  0     0  0
  4 17  1  0     0  0
  5  6  1  0     0  0
  5  7  1  0     0  0
  6  8  1  0     0  0
  6  9  2  0     0  0
  7 10  2  0     0  0
  8 10  1  0     0  0
  8 11  2  0     0  0
  9 12  1  0     0  0
  9 19  1  0     0  0
 10 18  1  0     0  0
 11 13  1  0     0  0
 12 13  2  0     0  0
 14 17  1  0     0  0
 14 18  1  0     0  0
 15 16  1  0     0  0
 15 21  1  0     0  0
 16 18  2  0     0  0
 17 21  2  0     0  0
 19 22  2  0     0  0
 20 22  1  0     0  0
 20 23  2  0     0  0
 20 24  1  0     0  0
M  END
> <standard_type>
IC50

> <# Confs.>
25

> <canonical_smiles>
O=C1C=C(O)C(C(C2=CNC3=C(/C=C/C(C)=C)C=CC=C32)=C1O)=O

> <standard_relation>
=

> <predicted_activity_value>
4.3979400086720375

> <actual_activity_value>
4.00436480540245

> <Compound>
19

> <publication_ID>
nan

> <standard_units>
nM

> hash
14664317817302608577

$$$$
19_
XXILIB    08252103493D 0   0.00000     0.00000

 24 26  0     1  0            999 V2000
   -3.2758    2.0765    4.4420 O   0  0  0  0  0  2           0  0  0
   -6.8106   -1.8040    3.5902 O   0  0  0  0  0  2           0  0  0
   -4.3884   -2.0476    2.3208 O   0  0  0  0  0  2           0  0  0
   -5.6100    2.1800    5.8217 O   0  0  0  0  0  2           0  0  0
   -0.2079   -0.0208    2.5274 N   0  0  0  0  0  3           0  0  0
   -0.6862   -0.0000    1.2340 C   0  0  0  0  0  4           0  0  0
   -1.2377   -0.0221    3.4250 C   0  0  0  0  0  4           0  0  0
   -2.0869    0.0130    1.3275 C   0  0  0  0  0  4           0  0  0
    0.0000    0.0000    0.0000 C   0  0  0  0  0  4           0  0  0
   -2.4253   -0.0023    2.7237 C   0  0  0  0  0  4           0  0  0
   -2.8313    0.0353    0.1265 C   0  0  0  0  0  4           0  0  0
   -0.7816    0.0281   -1.1666 C   0  0  0  0  0  4           0  0  0
   -2.1711    0.0428   -1.1046 C   0  0  0  0  0  4           0  0  0
   -4.0523    1.1405    4.2630 C   0  0  0  0  0  4           0  0  0
   -5.9702   -0.9356    3.8040 C   0  0  0  0  0  4           0  0  0
   -4.6413   -0.9632    3.1431 C   0  0  0  0  0  4           0  0  0
   -5.3624    1.1341    4.9561 C   0  0  0  0  0  4           0  0  0
   -3.7198   -0.0011    3.3444 C   0  0  0  0  0  4           0  0  0
    1.4560   -0.0000   -0.0000 C   0  0  0  0  0  4           0  0  0
    1.9435   -2.1589    1.1924 C   0  0  0  0  0  4           0  0  0
   -6.2532    0.1657    4.7364 C   0  0  0  0  0  4           0  0  0
    2.2798   -0.9195    0.5309 C   0  0  0  0  0  4           0  0  0
    0.9590   -2.9706    0.7737 C   0  0  0  0  0  4           0  0  0
    2.7377   -2.4642    2.4306 C   0  0  0  0  0  4           0  0  0
  1 14  2  0     0  0
  2 15  2  0     0  0
  3 16  1  0     0  0
  4 17  1  0     0  0
  5  6  1  0     0  0
  5  7  1  0     0  0
  6  8  1  0     0  0
  6  9  2  0     0  0
  7 10  2  0     0  0
  8 10  1  0     0  0
  8 11  2  0     0  0
  9 12  1  0     0  0
  9 19  1  0     0  0
 10 18  1  0     0  0
 11 13  1  0     0  0
 12 13  2  0     0  0
 14 17  1  0     0  0
 14 18  1  0     0  0
 15 16  1  0     0  0
 15 21  1  0     0  0
 16 18  2  0     0  0
 17 21  2  0     0  0
 19 22  2  0     0  0
 20 22  1  0     0  0
 20 23  2  0     0  0
 20 24  1  0     0  0
M  END
> <standard_type>
IC50

> <# Confs.>
25

> <canonical_smiles>
O=C1C=C(O)C(C(C2=CNC3=C(/C=C/C(C)=C)C=CC=C32)=C1O)=O

> <standard_relation>
=

> <predicted_activity_value>
4.3979400086720375

> <actual_activity_value>
4.00436480540245

> <Compound>
19

> <publication_ID>
nan

> <standard_units>
nM

> hash
14664317817302608577

$$$$
19_
XXILIB    08252103493D 0   0.00000     0.00000

 24 26  0     1  0            999 V2000
   -3.3218   -2.1160    4.3884 O   0  0  0  0  0  2           0  0  0
   -6.7733    1.8567    3.6210 O   0  0  0  0  0  2           0  0  0
   -4.3447    2.0767    2.3593 O   0  0  0  0  0  2           0  0  0
   -5.6646   -2.2049    5.7580 O   0  0  0  0  0  2           0  0  0
   -0.2079   -0.0208    2.5274 N   0  0  0  0  0  3           0  0  0
   -0.6862   -0.0000    1.2340 C   0  0  0  0  0  4           0  0  0
   -1.2377   -0.0221    3.4250 C   0  0  0  0  0  4           0  0  0
   -2.0869    0.0130    1.3275 C   0  0  0  0  0  4           0  0  0
    0.0000    0.0000    0.0000 C   0  0  0  0  0  4           0  0  0
   -2.4253   -0.0023    2.7237 C   0  0  0  0  0  4           0  0  0
   -2.8313    0.0353    0.1265 C   0  0  0  0  0  4           0  0  0
   -0.7816    0.0281   -1.1666 C   0  0  0  0  0  4           0  0  0
   -2.1711    0.0428   -1.1046 C   0  0  0  0  0  4           0  0  0
   -4.0784   -1.1603    4.2307 C   0  0  0  0  0  4           0  0  0
   -5.9529    0.9650    3.8143 C   0  0  0  0  0  4           0  0  0
   -4.6218    0.9811    3.1586 C   0  0  0  0  0  4           0  0  0
   -5.3918   -1.1447    4.9180 C   0  0  0  0  0  4           0  0  0
   -3.7191   -0.0011    3.3441 C   0  0  0  0  0  4           0  0  0
    1.4560   -0.0000    0.0000 C   0  0  0  0  0  4           0  0  0
    1.9435    2.1121    1.2735 C   0  0  0  0  0  4           0  0  0
   -6.2623   -0.1535    4.7179 C   0  0  0  0  0  4           0  0  0
    2.2798    0.9195    0.5309 C   0  0  0  0  0  4           0  0  0
    0.9115    2.9096    0.9531 C   0  0  0  0  0  4           0  0  0
    2.8661    2.4434    2.4120 C   0  0  0  0  0  4           0  0  0
  1 14  2  0     0  0
  2 15  2  0     0  0
  3 16  1  0     0  0
  4 17  1  0     0  0
  5  6  1  0     0  0
  5  7  1  0     0  0
  6  8  1  0     0  0
  6  9  2  0     0  0
  7 10  2  0     0  0
  8 10  1  0     0  0
  8 11  2  0     0  0
  9 12  1  0     0  0
  9 19  1  0     0  0
 10 18  1  0     0  0
 11 13  1  0     0  0
 12 13  2  0     0  0
 14 17  1  0     0  0
 14 18  1  0     0  0
 15 16  1  0     0  0
 15 21  1  0     0  0
 16 18  2  0     0  0
 17 21  2  0     0  0
 19 22  2  0     0  0
 20 22  1  0     0  0
 20 23  2  0     0  0
 20 24  1  0     0  0
M  END
> <standard_type>
IC50

> <# Confs.>
25

> <canonical_smiles>
O=C1C=C(O)C(C(C2=CNC3=C(/C=C/C(C)=C)C=CC=C32)=C1O)=O

> <standard_relation>
=

> <predicted_activity_value>
4.3979400086720375

> <actual_activity_value>
4.00436480540245

> <Compound>
19

> <publication_ID>
nan

> <standard_units>
nM

> hash
14664317817302608577

$$$$
19_
XXILIB    08252103493D 0   0.00000     0.00000

 24 26  0     1  0            999 V2000
   -3.2758    2.0765    4.4420 O   0  0  0  0  0  2           0  0  0
   -6.8106   -1.8040    3.5902 O   0  0  0  0  0  2           0  0  0
   -4.3884   -2.0476    2.3208 O   0  0  0  0  0  2           0  0  0
   -5.6100    2.1800    5.8217 O   0  0  0  0  0  2           0  0  0
   -0.2079   -0.0208    2.5274 N   0  0  0  0  0  3           0  0  0
   -0.6862   -0.0000    1.2340 C   0  0  0  0  0  4           0  0  0
   -1.2377   -0.0221    3.4250 C   0  0  0  0  0  4           0  0  0
   -2.0869    0.0130    1.3275 C   0  0  0  0  0  4           0  0  0
    0.0000    0.0000    0.0000 C   0  0  0  0  0  4           0  0  0
   -2.4253   -0.0023    2.7237 C   0  0  0  0  0  4           0  0  0
   -2.8313    0.0353    0.1265 C   0  0  0  0  0  4           0  0  0
   -0.7816    0.0281   -1.1666 C   0  0  0  0  0  4           0  0  0
   -2.1711    0.0428   -1.1046 C   0  0  0  0  0  4           0  0  0
   -4.0523    1.1405    4.2630 C   0  0  0  0  0  4           0  0  0
   -5.9702   -0.9356    3.8040 C   0  0  0  0  0  4           0  0  0
   -4.6413   -0.9632    3.1431 C   0  0  0  0  0  4           0  0  0
   -5.3624    1.1341    4.9561 C   0  0  0  0  0  4           0  0  0
   -3.7198   -0.0011    3.3444 C   0  0  0  0  0  4           0  0  0
    1.4560   -0.0000    0.0000 C   0  0  0  0  0  4           0  0  0
    1.9435    2.1121    1.2735 C   0  0  0  0  0  4           0  0  0
   -6.2532    0.1657    4.7364 C   0  0  0  0  0  4           0  0  0
    2.2798    0.9195    0.5309 C   0  0  0  0  0  4           0  0  0
    0.9115    2.9096    0.9531 C   0  0  0  0  0  4           0  0  0
    2.8661    2.4434    2.4120 C   0  0  0  0  0  4           0  0  0
  1 14  2  0     0  0
  2 15  2  0     0  0
  3 16  1  0     0  0
  4 17  1  0     0  0
  5  6  1  0     0  0
  5  7  1  0     0  0
  6  8  1  0     0  0
  6  9  2  0     0  0
  7 10  2  0     0  0
  8 10  1  0     0  0
  8 11  2  0     0  0
  9 12  1  0     0  0
  9 19  1  0     0  0
 10 18  1  0     0  0
 11 13  1  0     0  0
 12 13  2  0     0  0
 14 17  1  0     0  0
 14 18  1  0     0  0
 15 16  1  0     0  0
 15 21  1  0     0  0
 16 18  2  0     0  0
 17 21  2  0     0  0
 19 22  2  0     0  0
 20 22  1  0     0  0
 20 23  2  0     0  0
 20 24  1  0     0  0
M  END
> <standard_type>
IC50

> <# Confs.>
25

> <canonical_smiles>
O=C1C=C(O)C(C(C2=CNC3=C(/C=C/C(C)=C)C=CC=C32)=C1O)=O

> <standard_relation>
=

> <predicted_activity_value>
4.3979400086720375

> <actual_activity_value>
4.00436480540245

> <Compound>
19

> <publication_ID>
nan

> <standard_units>
nM

> hash
14664317817302608577

$$$$
19_
XXILIB    08252103493D 0   0.00000     0.00000

 24 26  0     1  0            999 V2000
   -3.3218   -2.1160    4.3884 O   0  0  0  0  0  2           0  0  0
   -6.7733    1.8567    3.6210 O   0  0  0  0  0  2           0  0  0
   -4.3447    2.0767    2.3593 O   0  0  0  0  0  2           0  0  0
   -5.6646   -2.2049    5.7580 O   0  0  0  0  0  2           0  0  0
   -0.2079   -0.0208    2.5274 N   0  0  0  0  0  3           0  0  0
   -0.6862   -0.0000    1.2340 C   0  0  0  0  0  4           0  0  0
   -1.2377   -0.0221    3.4250 C   0  0  0  0  0  4           0  0  0
   -2.0869    0.0130    1.3275 C   0  0  0  0  0  4           0  0  0
    0.0000    0.0000    0.0000 C   0  0  0  0  0  4           0  0  0
   -2.4253   -0.0023    2.7237 C   0  0  0  0  0  4           0  0  0
   -2.8313    0.0353    0.1265 C   0  0  0  0  0  4           0  0  0
   -0.7816    0.0281   -1.1666 C   0  0  0  0  0  4           0  0  0
   -2.1711    0.0428   -1.1046 C   0  0  0  0  0  4           0  0  0
   -4.0784   -1.1603    4.2307 C   0  0  0  0  0  4           0  0  0
   -5.9529    0.9650    3.8143 C   0  0  0  0  0  4           0  0  0
   -4.6218    0.9811    3.1586 C   0  0  0  0  0  4           0  0  0
   -5.3918   -1.1447    4.9180 C   0  0  0  0  0  4           0  0  0
   -3.7191   -0.0011    3.3441 C   0  0  0  0  0  4           0  0  0
    1.4560    0.0000   -0.0000 C   0  0  0  0  0  4           0  0  0
    1.9435   -2.4659   -0.0468 C   0  0  0  0  0  4           0  0  0
   -6.2623   -0.1535    4.7179 C   0  0  0  0  0  4           0  0  0
    2.2798   -1.0617    0.0000 C   0  0  0  0  0  4           0  0  0
    0.9115   -2.9963    0.6294 C   0  0  0  0  0  4           0  0  0
    2.8661   -3.3221   -0.8671 C   0  0  0  0  0  4           0  0  0
  1 14  2  0     0  0
  2 15  2  0     0  0
  3 16  1  0     0  0
  4 17  1  0     0  0
  5  6  1  0     0  0
  5  7  1  0     0  0
  6  8  1  0     0  0
  6  9  2  0     0  0
  7 10  2  0     0  0
  8 10  1  0     0  0
  8 11  2  0     0  0
  9 12  1  0     0  0
  9 19  1  0     0  0
 10 18  1  0     0  0
 11 13  1  0     0  0
 12 13  2  0     0  0
 14 17  1  0     0  0
 14 18  1  0     0  0
 15 16  1  0     0  0
 15 21  1  0     0  0
 16 18  2  0     0  0
 17 21  2  0     0  0
 19 22  2  0     0  0
 20 22  1  0     0  0
 20 23  2  0     0  0
 20 24  1  0     0  0
M  END
> <standard_type>
IC50

> <# Confs.>
25

> <canonical_smiles>
O=C1C=C(O)C(C(C2=CNC3=C(/C=C/C(C)=C)C=CC=C32)=C1O)=O

> <standard_relation>
=

> <predicted_activity_value>
4.3979400086720375

> <actual_activity_value>
4.00436480540245

> <Compound>
19

> <publication_ID>
nan

> <standard_units>
nM

> hash
14664317817302608577

$$$$
19_
XXILIB    08252103493D 0   0.00000     0.00000

 24 26  0     1  0            999 V2000
   -3.2758    2.0765    4.4420 O   0  0  0  0  0  2           0  0  0
   -6.8106   -1.8040    3.5902 O   0  0  0  0  0  2           0  0  0
   -4.3884   -2.0476    2.3208 O   0  0  0  0  0  2           0  0  0
   -5.6100    2.1800    5.8217 O   0  0  0  0  0  2           0  0  0
   -0.2079   -0.0208    2.5274 N   0  0  0  0  0  3           0  0  0
   -0.6862   -0.0000    1.2340 C   0  0  0  0  0  4           0  0  0
   -1.2377   -0.0221    3.4250 C   0  0  0  0  0  4           0  0  0
   -2.0869    0.0130    1.3275 C   0  0  0  0  0  4           0  0  0
    0.0000    0.0000    0.0000 C   0  0  0  0  0  4           0  0  0
   -2.4253   -0.0023    2.7237 C   0  0  0  0  0  4           0  0  0
   -2.8313    0.0353    0.1265 C   0  0  0  0  0  4           0  0  0
   -0.7816    0.0281   -1.1666 C   0  0  0  0  0  4           0  0  0
   -2.1711    0.0428   -1.1046 C   0  0  0  0  0  4           0  0  0
   -4.0523    1.1405    4.2630 C   0  0  0  0  0  4           0  0  0
   -5.9702   -0.9356    3.8040 C   0  0  0  0  0  4           0  0  0
   -4.6413   -0.9632    3.1431 C   0  0  0  0  0  4           0  0  0
   -5.3624    1.1341    4.9561 C   0  0  0  0  0  4           0  0  0
   -3.7198   -0.0011    3.3444 C   0  0  0  0  0  4           0  0  0
    1.4560    0.0000   -0.0000 C   0  0  0  0  0  4           0  0  0
    1.9435   -2.4659   -0.0468 C   0  0  0  0  0  4           0  0  0
   -6.2532    0.1657    4.7364 C   0  0  0  0  0  4           0  0  0
    2.2798   -1.0617    0.0000 C   0  0  0  0  0  4           0  0  0
    0.9115   -2.9963    0.6294 C   0  0  0  0  0  4           0  0  0
    2.8661   -3.3221   -0.8671 C   0  0  0  0  0  4           0  0  0
  1 14  2  0     0  0
  2 15  2  0     0  0
  3 16  1  0     0  0
  4 17  1  0     0  0
  5  6  1  0     0  0
  5  7  1  0     0  0
  6  8  1  0     0  0
  6  9  2  0     0  0
  7 10  2  0     0  0
  8 10  1  0     0  0
  8 11  2  0     0  0
  9 12  1  0     0  0
  9 19  1  0     0  0
 10 18  1  0     0  0
 11 13  1  0     0  0
 12 13  2  0     0  0
 14 17  1  0     0  0
 14 18  1  0     0  0
 15 16  1  0     0  0
 15 21  1  0     0  0
 16 18  2  0     0  0
 17 21  2  0     0  0
 19 22  2  0     0  0
 20 22  1  0     0  0
 20 23  2  0     0  0
 20 24  1  0     0  0
M  END
> <standard_type>
IC50

> <# Confs.>
25

> <canonical_smiles>
O=C1C=C(O)C(C(C2=CNC3=C(/C=C/C(C)=C)C=CC=C32)=C1O)=O

> <standard_relation>
=

> <predicted_activity_value>
4.3979400086720375

> <actual_activity_value>
4.00436480540245

> <Compound>
19

> <publication_ID>
nan

> <standard_units>
nM

> hash
14664317817302608577

$$$$
19_
XXILIB    08252103493D 0   0.00000     0.00000

 24 26  0     1  0            999 V2000
   -3.2758    2.0765    4.4420 O   0  0  0  0  0  2           0  0  0
   -6.8106   -1.8040    3.5902 O   0  0  0  0  0  2           0  0  0
   -4.3884   -2.0476    2.3208 O   0  0  0  0  0  2           0  0  0
   -5.6100    2.1800    5.8217 O   0  0  0  0  0  2           0  0  0
   -0.2079   -0.0208    2.5274 N   0  0  0  0  0  3           0  0  0
   -0.6862   -0.0000    1.2340 C   0  0  0  0  0  4           0  0  0
   -1.2377   -0.0221    3.4250 C   0  0  0  0  0  4           0  0  0
   -2.0869    0.0130    1.3275 C   0  0  0  0  0  4           0  0  0
    0.0000    0.0000    0.0000 C   0  0  0  0  0  4           0  0  0
   -2.4253   -0.0023    2.7237 C   0  0  0  0  0  4           0  0  0
   -2.8313    0.0353    0.1265 C   0  0  0  0  0  4           0  0  0
   -0.7816    0.0281   -1.1666 C   0  0  0  0  0  4           0  0  0
   -2.1711    0.0428   -1.1046 C   0  0  0  0  0  4           0  0  0
   -4.0523    1.1405    4.2630 C   0  0  0  0  0  4           0  0  0
   -5.9702   -0.9356    3.8040 C   0  0  0  0  0  4           0  0  0
   -4.6413   -0.9632    3.1431 C   0  0  0  0  0  4           0  0  0
   -5.3624    1.1341    4.9561 C   0  0  0  0  0  4           0  0  0
   -3.7198   -0.0011    3.3444 C   0  0  0  0  0  4           0  0  0
    1.4560   -0.0000    0.0000 C   0  0  0  0  0  4           0  0  0
    1.9435    2.4659    0.0468 C   0  0  0  0  0  4           0  0  0
   -6.2532    0.1657    4.7364 C   0  0  0  0  0  4           0  0  0
    2.2798    1.0617    0.0000 C   0  0  0  0  0  4           0  0  0
    0.9590    2.9595    0.8153 C   0  0  0  0  0  4           0  0  0
    2.7377    3.3493   -0.8729 C   0  0  0  0  0  4           0  0  0
  1 14  2  0     0  0
  2 15  2  0     0  0
  3 16  1  0     0  0
  4 17  1  0     0  0
  5  6  1  0     0  0
  5  7  1  0     0  0
  6  8  1  0     0  0
  6  9  2  0     0  0
  7 10  2  0     0  0
  8 10  1  0     0  0
  8 11  2  0     0  0
  9 12  1  0     0  0
  9 19  1  0     0  0
 10 18  1  0     0  0
 11 13  1  0     0  0
 12 13  2  0     0  0
 14 17  1  0     0  0
 14 18  1  0     0  0
 15 16  1  0     0  0
 15 21  1  0     0  0
 16 18  2  0     0  0
 17 21  2  0     0  0
 19 22  2  0     0  0
 20 22  1  0     0  0
 20 23  2  0     0  0
 20 24  1  0     0  0
M  END
> <standard_type>
IC50

> <# Confs.>
25

> <canonical_smiles>
O=C1C=C(O)C(C(C2=CNC3=C(/C=C/C(C)=C)C=CC=C32)=C1O)=O

> <standard_relation>
=

> <predicted_activity_value>
4.3979400086720375

> <actual_activity_value>
4.00436480540245

> <Compound>
19

> <publication_ID>
nan

> <standard_units>
nM

> hash
14664317817302608577

$$$$
19_
XXILIB    08252103493D 0   0.00000     0.00000

 24 26  0     1  0            999 V2000
   -3.3218   -2.1160    4.3884 O   0  0  0  0  0  2           0  0  0
   -6.7733    1.8567    3.6210 O   0  0  0  0  0  2           0  0  0
   -4.3447    2.0767    2.3593 O   0  0  0  0  0  2           0  0  0
   -5.6646   -2.2049    5.7580 O   0  0  0  0  0  2           0  0  0
   -0.2079   -0.0208    2.5274 N   0  0  0  0  0  3           0  0  0
   -0.6862   -0.0000    1.2340 C   0  0  0  0  0  4           0  0  0
   -1.2377   -0.0221    3.4250 C   0  0  0  0  0  4           0  0  0
   -2.0869    0.0130    1.3275 C   0  0  0  0  0  4           0  0  0
    0.0000    0.0000    0.0000 C   0  0  0  0  0  4           0  0  0
   -2.4253   -0.0023    2.7237 C   0  0  0  0  0  4           0  0  0
   -2.8313    0.0353    0.1265 C   0  0  0  0  0  4           0  0  0
   -0.7816    0.0281   -1.1666 C   0  0  0  0  0  4           0  0  0
   -2.1711    0.0428   -1.1046 C   0  0  0  0  0  4           0  0  0
   -4.0784   -1.1603    4.2307 C   0  0  0  0  0  4           0  0  0
   -5.9529    0.9650    3.8143 C   0  0  0  0  0  4           0  0  0
   -4.6218    0.9811    3.1586 C   0  0  0  0  0  4           0  0  0
   -5.3918   -1.1447    4.9180 C   0  0  0  0  0  4           0  0  0
   -3.7191   -0.0011    3.3441 C   0  0  0  0  0  4           0  0  0
    1.4560   -0.0000    0.0000 C   0  0  0  0  0  4           0  0  0
    1.9435    2.4659    0.0468 C   0  0  0  0  0  4           0  0  0
   -6.2623   -0.1535    4.7179 C   0  0  0  0  0  4           0  0  0
    2.2798    1.0617    0.0000 C   0  0  0  0  0  4           0  0  0
    0.9590    2.9595    0.8153 C   0  0  0  0  0  4           0  0  0
    2.7377    3.3493   -0.8729 C   0  0  0  0  0  4           0  0  0
  1 14  2  0     0  0
  2 15  2  0     0  0
  3 16  1  0     0  0
  4 17  1  0     0  0
  5  6  1  0     0  0
  5  7  1  0     0  0
  6  8  1  0     0  0
  6  9  2  0     0  0
  7 10  2  0     0  0
  8 10  1  0     0  0
  8 11  2  0     0  0
  9 12  1  0     0  0
  9 19  1  0     0  0
 10 18  1  0     0  0
 11 13  1  0     0  0
 12 13  2  0     0  0
 14 17  1  0     0  0
 14 18  1  0     0  0
 15 16  1  0     0  0
 15 21  1  0     0  0
 16 18  2  0     0  0
 17 21  2  0     0  0
 19 22  2  0     0  0
 20 22  1  0     0  0
 20 23  2  0     0  0
 20 24  1  0     0  0
M  END
> <standard_type>
IC50

> <# Confs.>
25

> <canonical_smiles>
O=C1C=C(O)C(C(C2=CNC3=C(/C=C/C(C)=C)C=CC=C32)=C1O)=O

> <standard_relation>
=

> <predicted_activity_value>
4.3979400086720375

> <actual_activity_value>
4.00436480540245

> <Compound>
19

> <publication_ID>
nan

> <standard_units>
nM

> hash
14664317817302608577

$$$$
19_
XXILIB    08252103493D 0   0.00000     0.00000

 24 26  0     1  0            999 V2000
   -3.7595    2.3872    3.4670 O   0  0  0  0  0  2           0  0  0
   -6.3133   -2.1412    4.5878 O   0  0  0  0  0  2           0  0  0
   -3.8624   -2.3796    3.3734 O   0  0  0  0  0  2           0  0  0
   -6.2615    2.5793    4.5041 O   0  0  0  0  0  2           0  0  0
   -0.2079   -0.0208    2.5274 N   0  0  0  0  0  3           0  0  0
   -0.6862   -0.0000    1.2340 C   0  0  0  0  0  4           0  0  0
   -1.2377   -0.0221    3.4250 C   0  0  0  0  0  4           0  0  0
   -2.0869    0.0130    1.3275 C   0  0  0  0  0  4           0  0  0
    0.0000    0.0000    0.0000 C   0  0  0  0  0  4           0  0  0
   -2.4253   -0.0023    2.7237 C   0  0  0  0  0  4           0  0  0
   -2.8313    0.0353    0.1265 C   0  0  0  0  0  4           0  0  0
   -0.7816    0.0281   -1.1666 C   0  0  0  0  0  4           0  0  0
   -2.1711    0.0428   -1.1046 C   0  0  0  0  0  4           0  0  0
   -4.3455    1.3258    3.6691 C   0  0  0  0  0  4           0  0  0
   -5.7257   -1.1054    4.2921 C   0  0  0  0  0  4           0  0  0
   -4.3857   -1.1295    3.6550 C   0  0  0  0  0  4           0  0  0
   -5.7038    1.3404    4.2626 C   0  0  0  0  0  4           0  0  0
   -3.7191   -0.0011    3.3441 C   0  0  0  0  0  4           0  0  0
    1.4560    0.0000   -0.0000 C   0  0  0  0  0  4           0  0  0
    1.9435   -2.4659   -0.0468 C   0  0  0  0  0  4           0  0  0
   -6.3408    0.2047    4.5535 C   0  0  0  0  0  4           0  0  0
    2.2798   -1.0617   -0.0000 C   0  0  0  0  0  4           0  0  0
    0.9590   -2.9595   -0.8153 C   0  0  0  0  0  4           0  0  0
    2.7377   -3.3493    0.8729 C   0  0  0  0  0  4           0  0  0
  1 14  2  0     0  0
  2 15  2  0     0  0
  3 16  1  0     0  0
  4 17  1  0     0  0
  5  6  1  0     0  0
  5  7  1  0     0  0
  6  8  1  0     0  0
  6  9  2  0     0  0
  7 10  2  0     0  0
  8 10  1  0     0  0
  8 11  2  0     0  0
  9 12  1  0     0  0
  9 19  1  0     0  0
 10 18  1  0     0  0
 11 13  1  0     0  0
 12 13  2  0     0  0
 14 17  1  0     0  0
 14 18  1  0     0  0
 15 16  1  0     0  0
 15 21  1  0     0  0
 16 18  2  0     0  0
 17 21  2  0     0  0
 19 22  2  0     0  0
 20 22  1  0     0  0
 20 23  2  0     0  0
 20 24  1  0     0  0
M  END
> <standard_type>
IC50

> <# Confs.>
25

> <canonical_smiles>
O=C1C=C(O)C(C(C2=CNC3=C(/C=C/C(C)=C)C=CC=C32)=C1O)=O

> <standard_relation>
=

> <predicted_activity_value>
4.3979400086720375

> <actual_activity_value>
4.00436480540245

> <Compound>
19

> <publication_ID>
nan

> <standard_units>
nM

> hash
14664317817302608577

$$$$
19_
XXILIB    08252103493D 0   0.00000     0.00000

 24 26  0     1  0            999 V2000
   -3.8437   -2.3893    3.3004 O   0  0  0  0  0  2           0  0  0
   -6.3099    2.1436    4.5868 O   0  0  0  0  0  2           0  0  0
   -3.8282    2.3776    3.4359 O   0  0  0  0  0  2           0  0  0
   -6.2191   -2.5771    4.6022 O   0  0  0  0  0  2           0  0  0
   -0.2079   -0.0208    2.5274 N   0  0  0  0  0  3           0  0  0
   -0.6862   -0.0000    1.2340 C   0  0  0  0  0  4           0  0  0
   -1.2377   -0.0221    3.4250 C   0  0  0  0  0  4           0  0  0
   -2.0869    0.0130    1.3275 C   0  0  0  0  0  4           0  0  0
    0.0000    0.0000    0.0000 C   0  0  0  0  0  4           0  0  0
   -2.4253   -0.0023    2.7237 C   0  0  0  0  0  4           0  0  0
   -2.8313    0.0353    0.1265 C   0  0  0  0  0  4           0  0  0
   -0.7816    0.0281   -1.1666 C   0  0  0  0  0  4           0  0  0
   -2.1711    0.0428   -1.1046 C   0  0  0  0  0  4           0  0  0
   -4.3666   -1.3270    3.6301 C   0  0  0  0  0  4           0  0  0
   -5.7129    1.1067    4.3144 C   0  0  0  0  0  4           0  0  0
   -4.3772    1.1284    3.6685 C   0  0  0  0  0  4           0  0  0
   -5.6799   -1.3391    4.3176 C   0  0  0  0  0  4           0  0  0
   -3.7191   -0.0011    3.3441 C   0  0  0  0  0  4           0  0  0
    1.4560   -0.0000    0.0000 C   0  0  0  0  0  4           0  0  0
    1.9435    2.4659    0.0468 C   0  0  0  0  0  4           0  0  0
   -6.3038   -0.2023    4.6314 C   0  0  0  0  0  4           0  0  0
    2.2798    1.0617    0.0000 C   0  0  0  0  0  4           0  0  0
    0.9115    2.9963   -0.6294 C   0  0  0  0  0  4           0  0  0
    2.8661    3.3221    0.8671 C   0  0  0  0  0  4           0  0  0
  1 14  2  0     0  0
  2 15  2  0     0  0
  3 16  1  0     0  0
  4 17  1  0     0  0
  5  6  1  0     0  0
  5  7  1  0     0  0
  6  8  1  0     0  0
  6  9  2  0     0  0
  7 10  2  0     0  0
  8 10  1  0     0  0
  8 11  2  0     0  0
  9 12  1  0     0  0
  9 19  1  0     0  0
 10 18  1  0     0  0
 11 13  1  0     0  0
 12 13  2  0     0  0
 14 17  1  0     0  0
 14 18  1  0     0  0
 15 16  1  0     0  0
 15 21  1  0     0  0
 16 18  2  0     0  0
 17 21  2  0     0  0
 19 22  2  0     0  0
 20 22  1  0     0  0
 20 23  2  0     0  0
 20 24  1  0     0  0
M  END
> <standard_type>
IC50

> <# Confs.>
25

> <canonical_smiles>
O=C1C=C(O)C(C(C2=CNC3=C(/C=C/C(C)=C)C=CC=C32)=C1O)=O

> <standard_relation>
=

> <predicted_activity_value>
4.3979400086720375

> <actual_activity_value>
4.00436480540245

> <Compound>
19

> <publication_ID>
nan

> <standard_units>
nM

> hash
14664317817302608577

$$$$
19_
XXILIB    08252103493D 0   0.00000     0.00000

 24 26  0     1  0            999 V2000
   -3.3218   -2.1160    4.3884 O   0  0  0  0  0  2           0  0  0
   -6.7733    1.8567    3.6210 O   0  0  0  0  0  2           0  0  0
   -4.3447    2.0767    2.3593 O   0  0  0  0  0  2           0  0  0
   -5.6646   -2.2049    5.7580 O   0  0  0  0  0  2           0  0  0
   -0.2079   -0.0208    2.5274 N   0  0  0  0  0  3           0  0  0
   -0.6862   -0.0000    1.2340 C   0  0  0  0  0  4           0  0  0
   -1.2377   -0.0221    3.4250 C   0  0  0  0  0  4           0  0  0
   -2.0869    0.0130    1.3275 C   0  0  0  0  0  4           0  0  0
    0.0000    0.0000    0.0000 C   0  0  0  0  0  4           0  0  0
   -2.4253   -0.0023    2.7237 C   0  0  0  0  0  4           0  0  0
   -2.8313    0.0353    0.1265 C   0  0  0  0  0  4           0  0  0
   -0.7816    0.0281   -1.1666 C   0  0  0  0  0  4           0  0  0
   -2.1711    0.0428   -1.1046 C   0  0  0  0  0  4           0  0  0
   -4.0784   -1.1603    4.2307 C   0  0  0  0  0  4           0  0  0
   -5.9529    0.9650    3.8143 C   0  0  0  0  0  4           0  0  0
   -4.6218    0.9811    3.1586 C   0  0  0  0  0  4           0  0  0
   -5.3918   -1.1447    4.9180 C   0  0  0  0  0  4           0  0  0
   -3.7191   -0.0011    3.3441 C   0  0  0  0  0  4           0  0  0
    1.4560    0.0000    0.0000 C   0  0  0  0  0  4           0  0  0
    1.9435    1.2735   -2.1121 C   0  0  0  0  0  4           0  0  0
   -6.2623   -0.1535    4.7179 C   0  0  0  0  0  4           0  0  0
    2.2798    0.5309   -0.9195 C   0  0  0  0  0  4           0  0  0
    0.9590    2.1858   -2.1554 C   0  0  0  0  0  4           0  0  0
    2.7377    0.9187   -3.3371 C   0  0  0  0  0  4           0  0  0
  1 14  2  0     0  0
  2 15  2  0     0  0
  3 16  1  0     0  0
  4 17  1  0     0  0
  5  6  1  0     0  0
  5  7  1  0     0  0
  6  8  1  0     0  0
  6  9  2  0     0  0
  7 10  2  0     0  0
  8 10  1  0     0  0
  8 11  2  0     0  0
  9 12  1  0     0  0
  9 19  1  0     0  0
 10 18  1  0     0  0
 11 13  1  0     0  0
 12 13  2  0     0  0
 14 17  1  0     0  0
 14 18  1  0     0  0
 15 16  1  0     0  0
 15 21  1  0     0  0
 16 18  2  0     0  0
 17 21  2  0     0  0
 19 22  2  0     0  0
 20 22  1  0     0  0
 20 23  2  0     0  0
 20 24  1  0     0  0
M  END
> <standard_type>
IC50

> <# Confs.>
25

> <canonical_smiles>
O=C1C=C(O)C(C(C2=CNC3=C(/C=C/C(C)=C)C=CC=C32)=C1O)=O

> <standard_relation>
=

> <predicted_activity_value>
4.3979400086720375

> <actual_activity_value>
4.00436480540245

> <Compound>
19

> <publication_ID>
nan

> <standard_units>
nM

> hash
14664317817302608577

$$$$
19_
XXILIB    08252103493D 0   0.00000     0.00000

 24 26  0     1  0            999 V2000
   -3.2758    2.0765    4.4420 O   0  0  0  0  0  2           0  0  0
   -6.8106   -1.8040    3.5902 O   0  0  0  0  0  2           0  0  0
   -4.3884   -2.0476    2.3208 O   0  0  0  0  0  2           0  0  0
   -5.6100    2.1800    5.8217 O   0  0  0  0  0  2           0  0  0
   -0.2079   -0.0208    2.5274 N   0  0  0  0  0  3           0  0  0
   -0.6862   -0.0000    1.2340 C   0  0  0  0  0  4           0  0  0
   -1.2377   -0.0221    3.4250 C   0  0  0  0  0  4           0  0  0
   -2.0869    0.0130    1.3275 C   0  0  0  0  0  4           0  0  0
    0.0000    0.0000    0.0000 C   0  0  0  0  0  4           0  0  0
   -2.4253   -0.0023    2.7237 C   0  0  0  0  0  4           0  0  0
   -2.8313    0.0353    0.1265 C   0  0  0  0  0  4           0  0  0
   -0.7816    0.0281   -1.1666 C   0  0  0  0  0  4           0  0  0
   -2.1711    0.0428   -1.1046 C   0  0  0  0  0  4           0  0  0
   -4.0523    1.1405    4.2630 C   0  0  0  0  0  4           0  0  0
   -5.9702   -0.9356    3.8040 C   0  0  0  0  0  4           0  0  0
   -4.6413   -0.9632    3.1431 C   0  0  0  0  0  4           0  0  0
   -5.3624    1.1341    4.9561 C   0  0  0  0  0  4           0  0  0
   -3.7198   -0.0011    3.3444 C   0  0  0  0  0  4           0  0  0
    1.4560    0.0000    0.0000 C   0  0  0  0  0  4           0  0  0
    1.9435    1.2735   -2.1121 C   0  0  0  0  0  4           0  0  0
   -6.2532    0.1657    4.7364 C   0  0  0  0  0  4           0  0  0
    2.2798    0.5309   -0.9195 C   0  0  0  0  0  4           0  0  0
    0.9590    2.1858   -2.1554 C   0  0  0  0  0  4           0  0  0
    2.7377    0.9187   -3.3371 C   0  0  0  0  0  4           0  0  0
  1 14  2  0     0  0
  2 15  2  0     0  0
  3 16  1  0     0  0
  4 17  1  0     0  0
  5  6  1  0     0  0
  5  7  1  0     0  0
  6  8  1  0     0  0
  6  9  2  0     0  0
  7 10  2  0     0  0
  8 10  1  0     0  0
  8 11  2  0     0  0
  9 12  1  0     0  0
  9 19  1  0     0  0
 10 18  1  0     0  0
 11 13  1  0     0  0
 12 13  2  0     0  0
 14 17  1  0     0  0
 14 18  1  0     0  0
 15 16  1  0     0  0
 15 21  1  0     0  0
 16 18  2  0     0  0
 17 21  2  0     0  0
 19 22  2  0     0  0
 20 22  1  0     0  0
 20 23  2  0     0  0
 20 24  1  0     0  0
M  END
> <standard_type>
IC50

> <# Confs.>
25

> <canonical_smiles>
O=C1C=C(O)C(C(C2=CNC3=C(/C=C/C(C)=C)C=CC=C32)=C1O)=O

> <standard_relation>
=

> <predicted_activity_value>
4.3979400086720375

> <actual_activity_value>
4.00436480540245

> <Compound>
19

> <publication_ID>
nan

> <standard_units>
nM

> hash
14664317817302608577

$$$$
19_
XXILIB    08252103493D 0   0.00000     0.00000

 24 26  0     1  0            999 V2000
   -3.2758    2.0765    4.4420 O   0  0  0  0  0  2           0  0  0
   -6.8106   -1.8040    3.5902 O   0  0  0  0  0  2           0  0  0
   -4.3884   -2.0476    2.3208 O   0  0  0  0  0  2           0  0  0
   -5.6100    2.1800    5.8217 O   0  0  0  0  0  2           0  0  0
   -0.2079   -0.0208    2.5274 N   0  0  0  0  0  3           0  0  0
   -0.6862   -0.0000    1.2340 C   0  0  0  0  0  4           0  0  0
   -1.2377   -0.0221    3.4250 C   0  0  0  0  0  4           0  0  0
   -2.0869    0.0130    1.3275 C   0  0  0  0  0  4           0  0  0
    0.0000    0.0000    0.0000 C   0  0  0  0  0  4           0  0  0
   -2.4253   -0.0023    2.7237 C   0  0  0  0  0  4           0  0  0
   -2.8313    0.0353    0.1265 C   0  0  0  0  0  4           0  0  0
   -0.7816    0.0281   -1.1666 C   0  0  0  0  0  4           0  0  0
   -2.1711    0.0428   -1.1046 C   0  0  0  0  0  4           0  0  0
   -4.0523    1.1405    4.2630 C   0  0  0  0  0  4           0  0  0
   -5.9702   -0.9356    3.8040 C   0  0  0  0  0  4           0  0  0
   -4.6413   -0.9632    3.1431 C   0  0  0  0  0  4           0  0  0
   -5.3624    1.1341    4.9561 C   0  0  0  0  0  4           0  0  0
   -3.7198   -0.0011    3.3444 C   0  0  0  0  0  4           0  0  0
    1.4560   -0.0000   -0.0000 C   0  0  0  0  0  4           0  0  0
    1.9435   -2.4659   -0.0468 C   0  0  0  0  0  4           0  0  0
   -6.2532    0.1657    4.7364 C   0  0  0  0  0  4           0  0  0
    2.2798   -1.0617    0.0000 C   0  0  0  0  0  4           0  0  0
    2.8659   -3.4420   -0.0414 C   0  0  0  0  0  4           0  0  0
    0.4773   -2.7736   -0.1598 C   0  0  0  0  0  4           0  0  0
  1 14  2  0     0  0
  2 15  2  0     0  0
  3 16  1  0     0  0
  4 17  1  0     0  0
  5  6  1  0     0  0
  5  7  1  0     0  0
  6  8  1  0     0  0
  6  9  2  0     0  0
  7 10  2  0     0  0
  8 10  1  0     0  0
  8 11  2  0     0  0
  9 12  1  0     0  0
  9 19  1  0     0  0
 10 18  1  0     0  0
 11 13  1  0     0  0
 12 13  2  0     0  0
 14 17  1  0     0  0
 14 18  1  0     0  0
 15 16  1  0     0  0
 15 21  1  0     0  0
 16 18  2  0     0  0
 17 21  2  0     0  0
 19 22  2  0     0  0
 20 22  1  0     0  0
 20 23  2  0     0  0
 20 24  1  0     0  0
M  END
> <standard_type>
IC50

> <# Confs.>
25

> <canonical_smiles>
O=C1C=C(O)C(C(C2=CNC3=C(/C=C/C(C)=C)C=CC=C32)=C1O)=O

> <standard_relation>
=

> <predicted_activity_value>
4.3979400086720375

> <actual_activity_value>
4.00436480540245

> <Compound>
19

> <publication_ID>
nan

> <standard_units>
nM

> hash
14664317817302608577

$$$$
19_
XXILIB    08252103493D 0   0.00000     0.00000

 24 26  0     1  0            999 V2000
   -3.3218   -2.1160    4.3884 O   0  0  0  0  0  2           0  0  0
   -6.7733    1.8567    3.6210 O   0  0  0  0  0  2           0  0  0
   -4.3447    2.0767    2.3593 O   0  0  0  0  0  2           0  0  0
   -5.6646   -2.2049    5.7580 O   0  0  0  0  0  2           0  0  0
   -0.2079   -0.0208    2.5274 N   0  0  0  0  0  3           0  0  0
   -0.6862   -0.0000    1.2340 C   0  0  0  0  0  4           0  0  0
   -1.2377   -0.0221    3.4250 C   0  0  0  0  0  4           0  0  0
   -2.0869    0.0130    1.3275 C   0  0  0  0  0  4           0  0  0
    0.0000    0.0000    0.0000 C   0  0  0  0  0  4           0  0  0
   -2.4253   -0.0023    2.7237 C   0  0  0  0  0  4           0  0  0
   -2.8313    0.0353    0.1265 C   0  0  0  0  0  4           0  0  0
   -0.7816    0.0281   -1.1666 C   0  0  0  0  0  4           0  0  0
   -2.1711    0.0428   -1.1046 C   0  0  0  0  0  4           0  0  0
   -4.0784   -1.1603    4.2307 C   0  0  0  0  0  4           0  0  0
   -5.9529    0.9650    3.8143 C   0  0  0  0  0  4           0  0  0
   -4.6218    0.9811    3.1586 C   0  0  0  0  0  4           0  0  0
   -5.3918   -1.1447    4.9180 C   0  0  0  0  0  4           0  0  0
   -3.7191   -0.0011    3.3441 C   0  0  0  0  0  4           0  0  0
    1.4560   -0.0000   -0.0000 C   0  0  0  0  0  4           0  0  0
    1.9435   -2.4659   -0.0468 C   0  0  0  0  0  4           0  0  0
   -6.2623   -0.1535    4.7179 C   0  0  0  0  0  4           0  0  0
    2.2798   -1.0617    0.0000 C   0  0  0  0  0  4           0  0  0
    2.8659   -3.4420   -0.0414 C   0  0  0  0  0  4           0  0  0
    0.4773   -2.7736   -0.1598 C   0  0  0  0  0  4           0  0  0
  1 14  2  0     0  0
  2 15  2  0     0  0
  3 16  1  0     0  0
  4 17  1  0     0  0
  5  6  1  0     0  0
  5  7  1  0     0  0
  6  8  1  0     0  0
  6  9  2  0     0  0
  7 10  2  0     0  0
  8 10  1  0     0  0
  8 11  2  0     0  0
  9 12  1  0     0  0
  9 19  1  0     0  0
 10 18  1  0     0  0
 11 13  1  0     0  0
 12 13  2  0     0  0
 14 17  1  0     0  0
 14 18  1  0     0  0
 15 16  1  0     0  0
 15 21  1  0     0  0
 16 18  2  0     0  0
 17 21  2  0     0  0
 19 22  2  0     0  0
 20 22  1  0     0  0
 20 23  2  0     0  0
 20 24  1  0     0  0
M  END
> <standard_type>
IC50

> <# Confs.>
25

> <canonical_smiles>
O=C1C=C(O)C(C(C2=CNC3=C(/C=C/C(C)=C)C=CC=C32)=C1O)=O

> <standard_relation>
=

> <predicted_activity_value>
4.3979400086720375

> <actual_activity_value>
4.00436480540245

> <Compound>
19

> <publication_ID>
nan

> <standard_units>
nM

> hash
14664317817302608577

$$$$
19_
XXILIB    08252103493D 0   0.00000     0.00000

 24 26  0     1  0            999 V2000
   -3.3218   -2.1160    4.3884 O   0  0  0  0  0  2           0  0  0
   -6.7733    1.8567    3.6210 O   0  0  0  0  0  2           0  0  0
   -4.3447    2.0767    2.3593 O   0  0  0  0  0  2           0  0  0
   -5.6646   -2.2049    5.7580 O   0  0  0  0  0  2           0  0  0
   -0.2079   -0.0208    2.5274 N   0  0  0  0  0  3           0  0  0
   -0.6862   -0.0000    1.2340 C   0  0  0  0  0  4           0  0  0
   -1.2377   -0.0221    3.4250 C   0  0  0  0  0  4           0  0  0
   -2.0869    0.0130    1.3275 C   0  0  0  0  0  4           0  0  0
    0.0000    0.0000    0.0000 C   0  0  0  0  0  4           0  0  0
   -2.4253   -0.0023    2.7237 C   0  0  0  0  0  4           0  0  0
   -2.8313    0.0353    0.1265 C   0  0  0  0  0  4           0  0  0
   -0.7816    0.0281   -1.1666 C   0  0  0  0  0  4           0  0  0
   -2.1711    0.0428   -1.1046 C   0  0  0  0  0  4           0  0  0
   -4.0784   -1.1603    4.2307 C   0  0  0  0  0  4           0  0  0
   -5.9529    0.9650    3.8143 C   0  0  0  0  0  4           0  0  0
   -4.6218    0.9811    3.1586 C   0  0  0  0  0  4           0  0  0
   -5.3918   -1.1447    4.9180 C   0  0  0  0  0  4           0  0  0
   -3.7191   -0.0011    3.3441 C   0  0  0  0  0  4           0  0  0
    1.4560   -0.0000    0.0000 C   0  0  0  0  0  4           0  0  0
    1.9435    2.4659    0.0468 C   0  0  0  0  0  4           0  0  0
   -6.2623   -0.1535    4.7179 C   0  0  0  0  0  4           0  0  0
    2.2798    1.0617    0.0000 C   0  0  0  0  0  4           0  0  0
    2.8659    3.4420    0.0414 C   0  0  0  0  0  4           0  0  0
    0.4773    2.7736    0.1598 C   0  0  0  0  0  4           0  0  0
  1 14  2  0     0  0
  2 15  2  0     0  0
  3 16  1  0     0  0
  4 17  1  0     0  0
  5  6  1  0     0  0
  5  7  1  0     0  0
  6  8  1  0     0  0
  6  9  2  0     0  0
  7 10  2  0     0  0
  8 10  1  0     0  0
  8 11  2  0     0  0
  9 12  1  0     0  0
  9 19  1  0     0  0
 10 18  1  0     0  0
 11 13  1  0     0  0
 12 13  2  0     0  0
 14 17  1  0     0  0
 14 18  1  0     0  0
 15 16  1  0     0  0
 15 21  1  0     0  0
 16 18  2  0     0  0
 17 21  2  0     0  0
 19 22  2  0     0  0
 20 22  1  0     0  0
 20 23  2  0     0  0
 20 24  1  0     0  0
M  END
> <standard_type>
IC50

> <# Confs.>
25

> <canonical_smiles>
O=C1C=C(O)C(C(C2=CNC3=C(/C=C/C(C)=C)C=CC=C32)=C1O)=O

> <standard_relation>
=

> <predicted_activity_value>
4.3979400086720375

> <actual_activity_value>
4.00436480540245

> <Compound>
19

> <publication_ID>
nan

> <standard_units>
nM

> hash
14664317817302608577

$$$$
19_
XXILIB    08252103493D 0   0.00000     0.00000

 24 26  0     1  0            999 V2000
   -3.2758    2.0765    4.4420 O   0  0  0  0  0  2           0  0  0
   -6.8106   -1.8040    3.5902 O   0  0  0  0  0  2           0  0  0
   -4.3884   -2.0476    2.3208 O   0  0  0  0  0  2           0  0  0
   -5.6100    2.1800    5.8217 O   0  0  0  0  0  2           0  0  0
   -0.2079   -0.0208    2.5274 N   0  0  0  0  0  3           0  0  0
   -0.6862   -0.0000    1.2340 C   0  0  0  0  0  4           0  0  0
   -1.2377   -0.0221    3.4250 C   0  0  0  0  0  4           0  0  0
   -2.0869    0.0130    1.3275 C   0  0  0  0  0  4           0  0  0
    0.0000    0.0000    0.0000 C   0  0  0  0  0  4           0  0  0
   -2.4253   -0.0023    2.7237 C   0  0  0  0  0  4           0  0  0
   -2.8313    0.0353    0.1265 C   0  0  0  0  0  4           0  0  0
   -0.7816    0.0281   -1.1666 C   0  0  0  0  0  4           0  0  0
   -2.1711    0.0428   -1.1046 C   0  0  0  0  0  4           0  0  0
   -4.0523    1.1405    4.2630 C   0  0  0  0  0  4           0  0  0
   -5.9702   -0.9356    3.8040 C   0  0  0  0  0  4           0  0  0
   -4.6413   -0.9632    3.1431 C   0  0  0  0  0  4           0  0  0
   -5.3624    1.1341    4.9561 C   0  0  0  0  0  4           0  0  0
   -3.7198   -0.0011    3.3444 C   0  0  0  0  0  4           0  0  0
    1.4560   -0.0000    0.0000 C   0  0  0  0  0  4           0  0  0
    1.9435    2.4659    0.0468 C   0  0  0  0  0  4           0  0  0
   -6.2532    0.1657    4.7364 C   0  0  0  0  0  4           0  0  0
    2.2798    1.0617    0.0000 C   0  0  0  0  0  4           0  0  0
    2.8659    3.4420    0.0414 C   0  0  0  0  0  4           0  0  0
    0.4773    2.7736    0.1598 C   0  0  0  0  0  4           0  0  0
  1 14  2  0     0  0
  2 15  2  0     0  0
  3 16  1  0     0  0
  4 17  1  0     0  0
  5  6  1  0     0  0
  5  7  1  0     0  0
  6  8  1  0     0  0
  6  9  2  0     0  0
  7 10  2  0     0  0
  8 10  1  0     0  0
  8 11  2  0     0  0
  9 12  1  0     0  0
  9 19  1  0     0  0
 10 18  1  0     0  0
 11 13  1  0     0  0
 12 13  2  0     0  0
 14 17  1  0     0  0
 14 18  1  0     0  0
 15 16  1  0     0  0
 15 21  1  0     0  0
 16 18  2  0     0  0
 17 21  2  0     0  0
 19 22  2  0     0  0
 20 22  1  0     0  0
 20 23  2  0     0  0
 20 24  1  0     0  0
M  END
> <standard_type>
IC50

> <# Confs.>
25

> <canonical_smiles>
O=C1C=C(O)C(C(C2=CNC3=C(/C=C/C(C)=C)C=CC=C32)=C1O)=O

> <standard_relation>
=

> <predicted_activity_value>
4.3979400086720375

> <actual_activity_value>
4.00436480540245

> <Compound>
19

> <publication_ID>
nan

> <standard_units>
nM

> hash
14664317817302608577

$$$$
19_
XXILIB    08252103493D 0   0.00000     0.00000

 24 26  0     1  0            999 V2000
   -3.2758    2.0765    4.4420 O   0  0  0  0  0  2           0  0  0
   -6.8106   -1.8040    3.5902 O   0  0  0  0  0  2           0  0  0
   -4.3884   -2.0476    2.3208 O   0  0  0  0  0  2           0  0  0
   -5.6100    2.1800    5.8217 O   0  0  0  0  0  2           0  0  0
   -0.2079   -0.0208    2.5274 N   0  0  0  0  0  3           0  0  0
   -0.6862   -0.0000    1.2340 C   0  0  0  0  0  4           0  0  0
   -1.2377   -0.0221    3.4250 C   0  0  0  0  0  4           0  0  0
   -2.0869    0.0130    1.3275 C   0  0  0  0  0  4           0  0  0
    0.0000    0.0000    0.0000 C   0  0  0  0  0  4           0  0  0
   -2.4253   -0.0023    2.7237 C   0  0  0  0  0  4           0  0  0
   -2.8313    0.0353    0.1265 C   0  0  0  0  0  4           0  0  0
   -0.7816    0.0281   -1.1666 C   0  0  0  0  0  4           0  0  0
   -2.1711    0.0428   -1.1046 C   0  0  0  0  0  4           0  0  0
   -4.0523    1.1405    4.2630 C   0  0  0  0  0  4           0  0  0
   -5.9702   -0.9356    3.8040 C   0  0  0  0  0  4           0  0  0
   -4.6413   -0.9632    3.1431 C   0  0  0  0  0  4           0  0  0
   -5.3624    1.1341    4.9561 C   0  0  0  0  0  4           0  0  0
   -3.7198   -0.0011    3.3444 C   0  0  0  0  0  4           0  0  0
    1.4560    0.0000   -0.0000 C   0  0  0  0  0  4           0  0  0
    1.9435   -1.1924   -2.1589 C   0  0  0  0  0  4           0  0  0
   -6.2532    0.1657    4.7364 C   0  0  0  0  0  4           0  0  0
    2.2798   -0.5309   -0.9195 C   0  0  0  0  0  4           0  0  0
    0.9115   -2.0432   -2.2802 C   0  0  0  0  0  4           0  0  0
    2.8661   -0.9101   -3.3106 C   0  0  0  0  0  4           0  0  0
  1 14  2  0     0  0
  2 15  2  0     0  0
  3 16  1  0     0  0
  4 17  1  0     0  0
  5  6  1  0     0  0
  5  7  1  0     0  0
  6  8  1  0     0  0
  6  9  2  0     0  0
  7 10  2  0     0  0
  8 10  1  0     0  0
  8 11  2  0     0  0
  9 12  1  0     0  0
  9 19  1  0     0  0
 10 18  1  0     0  0
 11 13  1  0     0  0
 12 13  2  0     0  0
 14 17  1  0     0  0
 14 18  1  0     0  0
 15 16  1  0     0  0
 15 21  1  0     0  0
 16 18  2  0     0  0
 17 21  2  0     0  0
 19 22  2  0     0  0
 20 22  1  0     0  0
 20 23  2  0     0  0
 20 24  1  0     0  0
M  END
> <standard_type>
IC50

> <# Confs.>
25

> <canonical_smiles>
O=C1C=C(O)C(C(C2=CNC3=C(/C=C/C(C)=C)C=CC=C32)=C1O)=O

> <standard_relation>
=

> <predicted_activity_value>
4.3979400086720375

> <actual_activity_value>
4.00436480540245

> <Compound>
19

> <publication_ID>
nan

> <standard_units>
nM

> hash
14664317817302608577

$$$$
19_
XXILIB    08252103493D 0   0.00000     0.00000

 24 26  0     1  0            999 V2000
   -3.3218   -2.1160    4.3884 O   0  0  0  0  0  2           0  0  0
   -6.7733    1.8567    3.6210 O   0  0  0  0  0  2           0  0  0
   -4.3447    2.0767    2.3593 O   0  0  0  0  0  2           0  0  0
   -5.6646   -2.2049    5.7580 O   0  0  0  0  0  2           0  0  0
   -0.2079   -0.0208    2.5274 N   0  0  0  0  0  3           0  0  0
   -0.6862   -0.0000    1.2340 C   0  0  0  0  0  4           0  0  0
   -1.2377   -0.0221    3.4250 C   0  0  0  0  0  4           0  0  0
   -2.0869    0.0130    1.3275 C   0  0  0  0  0  4           0  0  0
    0.0000    0.0000    0.0000 C   0  0  0  0  0  4           0  0  0
   -2.4253   -0.0023    2.7237 C   0  0  0  0  0  4           0  0  0
   -2.8313    0.0353    0.1265 C   0  0  0  0  0  4           0  0  0
   -0.7816    0.0281   -1.1666 C   0  0  0  0  0  4           0  0  0
   -2.1711    0.0428   -1.1046 C   0  0  0  0  0  4           0  0  0
   -4.0784   -1.1603    4.2307 C   0  0  0  0  0  4           0  0  0
   -5.9529    0.9650    3.8143 C   0  0  0  0  0  4           0  0  0
   -4.6218    0.9811    3.1586 C   0  0  0  0  0  4           0  0  0
   -5.3918   -1.1447    4.9180 C   0  0  0  0  0  4           0  0  0
   -3.7191   -0.0011    3.3441 C   0  0  0  0  0  4           0  0  0
    1.4560    0.0000   -0.0000 C   0  0  0  0  0  4           0  0  0
    1.9435   -1.1924   -2.1589 C   0  0  0  0  0  4           0  0  0
   -6.2623   -0.1535    4.7179 C   0  0  0  0  0  4           0  0  0
    2.2798   -0.5309   -0.9195 C   0  0  0  0  0  4           0  0  0
    0.9115   -2.0432   -2.2802 C   0  0  0  0  0  4           0  0  0
    2.8661   -0.9101   -3.3106 C   0  0  0  0  0  4           0  0  0
  1 14  2  0     0  0
  2 15  2  0     0  0
  3 16  1  0     0  0
  4 17  1  0     0  0
  5  6  1  0     0  0
  5  7  1  0     0  0
  6  8  1  0     0  0
  6  9  2  0     0  0
  7 10  2  0     0  0
  8 10  1  0     0  0
  8 11  2  0     0  0
  9 12  1  0     0  0
  9 19  1  0     0  0
 10 18  1  0     0  0
 11 13  1  0     0  0
 12 13  2  0     0  0
 14 17  1  0     0  0
 14 18  1  0     0  0
 15 16  1  0     0  0
 15 21  1  0     0  0
 16 18  2  0     0  0
 17 21  2  0     0  0
 19 22  2  0     0  0
 20 22  1  0     0  0
 20 23  2  0     0  0
 20 24  1  0     0  0
M  END
> <standard_type>
IC50

> <# Confs.>
25

> <canonical_smiles>
O=C1C=C(O)C(C(C2=CNC3=C(/C=C/C(C)=C)C=CC=C32)=C1O)=O

> <standard_relation>
=

> <predicted_activity_value>
4.3979400086720375

> <actual_activity_value>
4.00436480540245

> <Compound>
19

> <publication_ID>
nan

> <standard_units>
nM

> hash
14664317817302608577

$$$$
19_
XXILIB    08252103493D 0   0.00000     0.00000

 24 26  0     1  0            999 V2000
   -4.6748    1.2739    1.5603 O   0  0  0  0  0  2           0  0  0
   -5.5102   -1.0702    6.2605 O   0  0  0  0  0  2           0  0  0
   -2.9632   -1.2212    5.2465 O   0  0  0  0  0  2           0  0  0
   -7.2164    1.2440    2.5153 O   0  0  0  0  0  2           0  0  0
   -0.2079   -0.0208    2.5274 N   0  0  0  0  0  3           0  0  0
   -0.6862   -0.0000    1.2340 C   0  0  0  0  0  4           0  0  0
   -1.2377   -0.0221    3.4250 C   0  0  0  0  0  4           0  0  0
   -2.0869    0.0130    1.3275 C   0  0  0  0  0  4           0  0  0
    0.0000    0.0000    0.0000 C   0  0  0  0  0  4           0  0  0
   -2.4253   -0.0023    2.7237 C   0  0  0  0  0  4           0  0  0
   -2.8313    0.0353    0.1265 C   0  0  0  0  0  4           0  0  0
   -0.7816    0.0281   -1.1666 C   0  0  0  0  0  4           0  0  0
   -2.1711    0.0428   -1.1046 C   0  0  0  0  0  4           0  0  0
   -4.8474    0.6818    2.6235 C   0  0  0  0  0  4           0  0  0
   -5.3083   -0.5635    5.1614 C   0  0  0  0  0  4           0  0  0
   -3.9608   -0.5719    4.5400 C   0  0  0  0  0  4           0  0  0
   -6.1995    0.6446    3.2301 C   0  0  0  0  0  4           0  0  0
   -3.7191   -0.0011    3.3441 C   0  0  0  0  0  4           0  0  0
    1.4560   -0.0000   -0.0000 C   0  0  0  0  0  4           0  0  0
    1.9435   -2.1589    1.1924 C   0  0  0  0  0  4           0  0  0
   -6.4078    0.0656    4.4141 C   0  0  0  0  0  4           0  0  0
    2.2798   -0.9195    0.5309 C   0  0  0  0  0  4           0  0  0
    0.9590   -2.9706    0.7737 C   0  0  0  0  0  4           0  0  0
    2.7377   -2.4642    2.4306 C   0  0  0  0  0  4           0  0  0
  1 14  2  0     0  0
  2 15  2  0     0  0
  3 16  1  0     0  0
  4 17  1  0     0  0
  5  6  1  0     0  0
  5  7  1  0     0  0
  6  8  1  0     0  0
  6  9  2  0     0  0
  7 10  2  0     0  0
  8 10  1  0     0  0
  8 11  2  0     0  0
  9 12  1  0     0  0
  9 19  1  0     0  0
 10 18  1  0     0  0
 11 13  1  0     0  0
 12 13  2  0     0  0
 14 17  1  0     0  0
 14 18  1  0     0  0
 15 16  1  0     0  0
 15 21  1  0     0  0
 16 18  2  0     0  0
 17 21  2  0     0  0
 19 22  2  0     0  0
 20 22  1  0     0  0
 20 23  2  0     0  0
 20 24  1  0     0  0
M  END
> <standard_type>
IC50

> <# Confs.>
25

> <canonical_smiles>
O=C1C=C(O)C(C(C2=CNC3=C(/C=C/C(C)=C)C=CC=C32)=C1O)=O

> <standard_relation>
=

> <predicted_activity_value>
4.3979400086720375

> <actual_activity_value>
4.00436480540245

> <Compound>
19

> <publication_ID>
nan

> <standard_units>
nM

> hash
14664317817302608577

$$$$
19_
XXILIB    08252103493D 0   0.00000     0.00000

 24 26  0     1  0            999 V2000
   -4.6808   -1.2095    1.5184 O   0  0  0  0  0  2           0  0  0
   -5.5187    1.0071    6.2788 O   0  0  0  0  0  2           0  0  0
   -2.9656    1.1653    5.2818 O   0  0  0  0  0  2           0  0  0
   -7.2264   -1.1776    2.4573 O   0  0  0  0  0  2           0  0  0
   -0.2079   -0.0208    2.5274 N   0  0  0  0  0  3           0  0  0
   -0.6862   -0.0000    1.2340 C   0  0  0  0  0  4           0  0  0
   -1.2377   -0.0221    3.4250 C   0  0  0  0  0  4           0  0  0
   -2.0869    0.0130    1.3275 C   0  0  0  0  0  4           0  0  0
    0.0000    0.0000    0.0000 C   0  0  0  0  0  4           0  0  0
   -2.4253   -0.0023    2.7237 C   0  0  0  0  0  4           0  0  0
   -2.8313    0.0353    0.1265 C   0  0  0  0  0  4           0  0  0
   -0.7816    0.0281   -1.1666 C   0  0  0  0  0  4           0  0  0
   -2.1711    0.0428   -1.1046 C   0  0  0  0  0  4           0  0  0
   -4.8525   -0.6466    2.5975 C   0  0  0  0  0  4           0  0  0
   -5.3159    0.5322    5.1656 C   0  0  0  0  0  4           0  0  0
   -3.9641    0.5432    4.5525 C   0  0  0  0  0  4           0  0  0
   -6.2082   -0.6095    3.1956 C   0  0  0  0  0  4           0  0  0
   -3.7198   -0.0011    3.3444 C   0  0  0  0  0  4           0  0  0
    1.4560   -0.0000   -0.0000 C   0  0  0  0  0  4           0  0  0
    1.9435   -2.1589    1.1924 C   0  0  0  0  0  4           0  0  0
   -6.4178   -0.0614    4.3937 C   0  0  0  0  0  4           0  0  0
    2.2798   -0.9195    0.5309 C   0  0  0  0  0  4           0  0  0
    0.9590   -2.9706    0.7737 C   0  0  0  0  0  4           0  0  0
    2.7377   -2.4642    2.4306 C   0  0  0  0  0  4           0  0  0
  1 14  2  0     0  0
  2 15  2  0     0  0
  3 16  1  0     0  0
  4 17  1  0     0  0
  5  6  1  0     0  0
  5  7  1  0     0  0
  6  8  1  0     0  0
  6  9  2  0     0  0
  7 10  2  0     0  0
  8 10  1  0     0  0
  8 11  2  0     0  0
  9 12  1  0     0  0
  9 19  1  0     0  0
 10 18  1  0     0  0
 11 13  1  0     0  0
 12 13  2  0     0  0
 14 17  1  0     0  0
 14 18  1  0     0  0
 15 16  1  0     0  0
 15 21  1  0     0  0
 16 18  2  0     0  0
 17 21  2  0     0  0
 19 22  2  0     0  0
 20 22  1  0     0  0
 20 23  2  0     0  0
 20 24  1  0     0  0
M  END
> <standard_type>
IC50

> <# Confs.>
25

> <canonical_smiles>
O=C1C=C(O)C(C(C2=CNC3=C(/C=C/C(C)=C)C=CC=C32)=C1O)=O

> <standard_relation>
=

> <predicted_activity_value>
4.3979400086720375

> <actual_activity_value>
4.00436480540245

> <Compound>
19

> <publication_ID>
nan

> <standard_units>
nM

> hash
14664317817302608577

$$$$
19_
XXILIB    08252103493D 0   0.00000     0.00000

 24 26  0     1  0            999 V2000
   -4.6748    1.2739    1.5603 O   0  0  0  0  0  2           0  0  0
   -5.5102   -1.0702    6.2605 O   0  0  0  0  0  2           0  0  0
   -2.9632   -1.2212    5.2465 O   0  0  0  0  0  2           0  0  0
   -7.2164    1.2440    2.5153 O   0  0  0  0  0  2           0  0  0
   -0.2079   -0.0208    2.5274 N   0  0  0  0  0  3           0  0  0
   -0.6862   -0.0000    1.2340 C   0  0  0  0  0  4           0  0  0
   -1.2377   -0.0221    3.4250 C   0  0  0  0  0  4           0  0  0
   -2.0869    0.0130    1.3275 C   0  0  0  0  0  4           0  0  0
    0.0000    0.0000    0.0000 C   0  0  0  0  0  4           0  0  0
   -2.4253   -0.0023    2.7237 C   0  0  0  0  0  4           0  0  0
   -2.8313    0.0353    0.1265 C   0  0  0  0  0  4           0  0  0
   -0.7816    0.0281   -1.1666 C   0  0  0  0  0  4           0  0  0
   -2.1711    0.0428   -1.1046 C   0  0  0  0  0  4           0  0  0
   -4.8474    0.6818    2.6235 C   0  0  0  0  0  4           0  0  0
   -5.3083   -0.5635    5.1614 C   0  0  0  0  0  4           0  0  0
   -3.9608   -0.5719    4.5400 C   0  0  0  0  0  4           0  0  0
   -6.1995    0.6446    3.2301 C   0  0  0  0  0  4           0  0  0
   -3.7191   -0.0011    3.3441 C   0  0  0  0  0  4           0  0  0
    1.4560   -0.0000    0.0000 C   0  0  0  0  0  4           0  0  0
    1.9435    2.1121    1.2735 C   0  0  0  0  0  4           0  0  0
   -6.4078    0.0656    4.4141 C   0  0  0  0  0  4           0  0  0
    2.2798    0.9195    0.5309 C   0  0  0  0  0  4           0  0  0
    0.9115    2.9096    0.9531 C   0  0  0  0  0  4           0  0  0
    2.8661    2.4434    2.4120 C   0  0  0  0  0  4           0  0  0
  1 14  2  0     0  0
  2 15  2  0     0  0
  3 16  1  0     0  0
  4 17  1  0     0  0
  5  6  1  0     0  0
  5  7  1  0     0  0
  6  8  1  0     0  0
  6  9  2  0     0  0
  7 10  2  0     0  0
  8 10  1  0     0  0
  8 11  2  0     0  0
  9 12  1  0     0  0
  9 19  1  0     0  0
 10 18  1  0     0  0
 11 13  1  0     0  0
 12 13  2  0     0  0
 14 17  1  0     0  0
 14 18  1  0     0  0
 15 16  1  0     0  0
 15 21  1  0     0  0
 16 18  2  0     0  0
 17 21  2  0     0  0
 19 22  2  0     0  0
 20 22  1  0     0  0
 20 23  2  0     0  0
 20 24  1  0     0  0
M  END
> <standard_type>
IC50

> <# Confs.>
25

> <canonical_smiles>
O=C1C=C(O)C(C(C2=CNC3=C(/C=C/C(C)=C)C=CC=C32)=C1O)=O

> <standard_relation>
=

> <predicted_activity_value>
4.3979400086720375

> <actual_activity_value>
4.00436480540245

> <Compound>
19

> <publication_ID>
nan

> <standard_units>
nM

> hash
14664317817302608577

$$$$
19_
XXILIB    08252103493D 0   0.00000     0.00000

 24 26  0     1  0            999 V2000
   -4.6808   -1.2095    1.5184 O   0  0  0  0  0  2           0  0  0
   -5.5187    1.0071    6.2788 O   0  0  0  0  0  2           0  0  0
   -2.9656    1.1653    5.2818 O   0  0  0  0  0  2           0  0  0
   -7.2264   -1.1776    2.4573 O   0  0  0  0  0  2           0  0  0
   -0.2079   -0.0208    2.5274 N   0  0  0  0  0  3           0  0  0
   -0.6862   -0.0000    1.2340 C   0  0  0  0  0  4           0  0  0
   -1.2377   -0.0221    3.4250 C   0  0  0  0  0  4           0  0  0
   -2.0869    0.0130    1.3275 C   0  0  0  0  0  4           0  0  0
    0.0000    0.0000    0.0000 C   0  0  0  0  0  4           0  0  0
   -2.4253   -0.0023    2.7237 C   0  0  0  0  0  4           0  0  0
   -2.8313    0.0353    0.1265 C   0  0  0  0  0  4           0  0  0
   -0.7816    0.0281   -1.1666 C   0  0  0  0  0  4           0  0  0
   -2.1711    0.0428   -1.1046 C   0  0  0  0  0  4           0  0  0
   -4.8525   -0.6466    2.5975 C   0  0  0  0  0  4           0  0  0
   -5.3159    0.5322    5.1656 C   0  0  0  0  0  4           0  0  0
   -3.9641    0.5432    4.5525 C   0  0  0  0  0  4           0  0  0
   -6.2082   -0.6095    3.1956 C   0  0  0  0  0  4           0  0  0
   -3.7198   -0.0011    3.3444 C   0  0  0  0  0  4           0  0  0
    1.4560   -0.0000    0.0000 C   0  0  0  0  0  4           0  0  0
    1.9435    2.1121    1.2735 C   0  0  0  0  0  4           0  0  0
   -6.4178   -0.0614    4.3937 C   0  0  0  0  0  4           0  0  0
    2.2798    0.9195    0.5309 C   0  0  0  0  0  4           0  0  0
    0.9115    2.9096    0.9531 C   0  0  0  0  0  4           0  0  0
    2.8661    2.4434    2.4120 C   0  0  0  0  0  4           0  0  0
  1 14  2  0     0  0
  2 15  2  0     0  0
  3 16  1  0     0  0
  4 17  1  0     0  0
  5  6  1  0     0  0
  5  7  1  0     0  0
  6  8  1  0     0  0
  6  9  2  0     0  0
  7 10  2  0     0  0
  8 10  1  0     0  0
  8 11  2  0     0  0
  9 12  1  0     0  0
  9 19  1  0     0  0
 10 18  1  0     0  0
 11 13  1  0     0  0
 12 13  2  0     0  0
 14 17  1  0     0  0
 14 18  1  0     0  0
 15 16  1  0     0  0
 15 21  1  0     0  0
 16 18  2  0     0  0
 17 21  2  0     0  0
 19 22  2  0     0  0
 20 22  1  0     0  0
 20 23  2  0     0  0
 20 24  1  0     0  0
M  END
> <standard_type>
IC50

> <# Confs.>
25

> <canonical_smiles>
O=C1C=C(O)C(C(C2=CNC3=C(/C=C/C(C)=C)C=CC=C32)=C1O)=O

> <standard_relation>
=

> <predicted_activity_value>
4.3979400086720375

> <actual_activity_value>
4.00436480540245

> <Compound>
19

> <publication_ID>
nan

> <standard_units>
nM

> hash
14664317817302608577

$$$$
19_
XXILIB    08252103493D 0   0.00000     0.00000

 24 26  0     1  0            999 V2000
   -4.6748    1.2739    1.5603 O   0  0  0  0  0  2           0  0  0
   -5.5102   -1.0702    6.2605 O   0  0  0  0  0  2           0  0  0
   -2.9632   -1.2212    5.2465 O   0  0  0  0  0  2           0  0  0
   -7.2164    1.2440    2.5153 O   0  0  0  0  0  2           0  0  0
   -0.2079   -0.0208    2.5274 N   0  0  0  0  0  3           0  0  0
   -0.6862   -0.0000    1.2340 C   0  0  0  0  0  4           0  0  0
   -1.2377   -0.0221    3.4250 C   0  0  0  0  0  4           0  0  0
   -2.0869    0.0130    1.3275 C   0  0  0  0  0  4           0  0  0
    0.0000    0.0000    0.0000 C   0  0  0  0  0  4           0  0  0
   -2.4253   -0.0023    2.7237 C   0  0  0  0  0  4           0  0  0
   -2.8313    0.0353    0.1265 C   0  0  0  0  0  4           0  0  0
   -0.7816    0.0281   -1.1666 C   0  0  0  0  0  4           0  0  0
   -2.1711    0.0428   -1.1046 C   0  0  0  0  0  4           0  0  0
   -4.8474    0.6818    2.6235 C   0  0  0  0  0  4           0  0  0
   -5.3083   -0.5635    5.1614 C   0  0  0  0  0  4           0  0  0
   -3.9608   -0.5719    4.5400 C   0  0  0  0  0  4           0  0  0
   -6.1995    0.6446    3.2301 C   0  0  0  0  0  4           0  0  0
   -3.7191   -0.0011    3.3441 C   0  0  0  0  0  4           0  0  0
    1.4560    0.0000   -0.0000 C   0  0  0  0  0  4           0  0  0
    1.9435   -2.4659   -0.0468 C   0  0  0  0  0  4           0  0  0
   -6.4078    0.0656    4.4141 C   0  0  0  0  0  4           0  0  0
    2.2798   -1.0617    0.0000 C   0  0  0  0  0  4           0  0  0
    0.9115   -2.9963    0.6294 C   0  0  0  0  0  4           0  0  0
    2.8661   -3.3221   -0.8671 C   0  0  0  0  0  4           0  0  0
  1 14  2  0     0  0
  2 15  2  0     0  0
  3 16  1  0     0  0
  4 17  1  0     0  0
  5  6  1  0     0  0
  5  7  1  0     0  0
  6  8  1  0     0  0
  6  9  2  0     0  0
  7 10  2  0     0  0
  8 10  1  0     0  0
  8 11  2  0     0  0
  9 12  1  0     0  0
  9 19  1  0     0  0
 10 18  1  0     0  0
 11 13  1  0     0  0
 12 13  2  0     0  0
 14 17  1  0     0  0
 14 18  1  0     0  0
 15 16  1  0     0  0
 15 21  1  0     0  0
 16 18  2  0     0  0
 17 21  2  0     0  0
 19 22  2  0     0  0
 20 22  1  0     0  0
 20 23  2  0     0  0
 20 24  1  0     0  0
M  END
> <standard_type>
IC50

> <# Confs.>
25

> <canonical_smiles>
O=C1C=C(O)C(C(C2=CNC3=C(/C=C/C(C)=C)C=CC=C32)=C1O)=O

> <standard_relation>
=

> <predicted_activity_value>
4.3979400086720375

> <actual_activity_value>
4.00436480540245

> <Compound>
19

> <publication_ID>
nan

> <standard_units>
nM

> hash
14664317817302608577

$$$$
19_
XXILIB    08252103493D 0   0.00000     0.00000

 24 26  0     1  0            999 V2000
   -4.6808   -1.2095    1.5184 O   0  0  0  0  0  2           0  0  0
   -5.5187    1.0071    6.2788 O   0  0  0  0  0  2           0  0  0
   -2.9656    1.1653    5.2818 O   0  0  0  0  0  2           0  0  0
   -7.2264   -1.1776    2.4573 O   0  0  0  0  0  2           0  0  0
   -0.2079   -0.0208    2.5274 N   0  0  0  0  0  3           0  0  0
   -0.6862   -0.0000    1.2340 C   0  0  0  0  0  4           0  0  0
   -1.2377   -0.0221    3.4250 C   0  0  0  0  0  4           0  0  0
   -2.0869    0.0130    1.3275 C   0  0  0  0  0  4           0  0  0
    0.0000    0.0000    0.0000 C   0  0  0  0  0  4           0  0  0
   -2.4253   -0.0023    2.7237 C   0  0  0  0  0  4           0  0  0
   -2.8313    0.0353    0.1265 C   0  0  0  0  0  4           0  0  0
   -0.7816    0.0281   -1.1666 C   0  0  0  0  0  4           0  0  0
   -2.1711    0.0428   -1.1046 C   0  0  0  0  0  4           0  0  0
   -4.8525   -0.6466    2.5975 C   0  0  0  0  0  4           0  0  0
   -5.3159    0.5322    5.1656 C   0  0  0  0  0  4           0  0  0
   -3.9641    0.5432    4.5525 C   0  0  0  0  0  4           0  0  0
   -6.2082   -0.6095    3.1956 C   0  0  0  0  0  4           0  0  0
   -3.7198   -0.0011    3.3444 C   0  0  0  0  0  4           0  0  0
    1.4560    0.0000   -0.0000 C   0  0  0  0  0  4           0  0  0
    1.9435   -2.4659   -0.0468 C   0  0  0  0  0  4           0  0  0
   -6.4178   -0.0614    4.3937 C   0  0  0  0  0  4           0  0  0
    2.2798   -1.0617    0.0000 C   0  0  0  0  0  4           0  0  0
    0.9115   -2.9963    0.6294 C   0  0  0  0  0  4           0  0  0
    2.8661   -3.3221   -0.8671 C   0  0  0  0  0  4           0  0  0
  1 14  2  0     0  0
  2 15  2  0     0  0
  3 16  1  0     0  0
  4 17  1  0     0  0
  5  6  1  0     0  0
  5  7  1  0     0  0
  6  8  1  0     0  0
  6  9  2  0     0  0
  7 10  2  0     0  0
  8 10  1  0     0  0
  8 11  2  0     0  0
  9 12  1  0     0  0
  9 19  1  0     0  0
 10 18  1  0     0  0
 11 13  1  0     0  0
 12 13  2  0     0  0
 14 17  1  0     0  0
 14 18  1  0     0  0
 15 16  1  0     0  0
 15 21  1  0     0  0
 16 18  2  0     0  0
 17 21  2  0     0  0
 19 22  2  0     0  0
 20 22  1  0     0  0
 20 23  2  0     0  0
 20 24  1  0     0  0
M  END
> <standard_type>
IC50

> <# Confs.>
25

> <canonical_smiles>
O=C1C=C(O)C(C(C2=CNC3=C(/C=C/C(C)=C)C=CC=C32)=C1O)=O

> <standard_relation>
=

> <predicted_activity_value>
4.3979400086720375

> <actual_activity_value>
4.00436480540245

> <Compound>
19

> <publication_ID>
nan

> <standard_units>
nM

> hash
14664317817302608577

$$$$
19_
XXILIB    08252103493D 0   0.00000     0.00000

 24 26  0     1  0            999 V2000
   -2.8958    1.2074    5.2362 O   0  0  0  0  0  2           0  0  0
   -7.1357   -1.0047    2.9107 O   0  0  0  0  0  2           0  0  0
   -4.7600   -1.1674    1.5443 O   0  0  0  0  0  2           0  0  0
   -5.2218    1.1799    6.6333 O   0  0  0  0  0  2           0  0  0
   -0.2079   -0.0208    2.5274 N   0  0  0  0  0  3           0  0  0
   -0.6862   -0.0000    1.2340 C   0  0  0  0  0  4           0  0  0
   -1.2377   -0.0221    3.4250 C   0  0  0  0  0  4           0  0  0
   -2.0869    0.0130    1.3275 C   0  0  0  0  0  4           0  0  0
    0.0000    0.0000    0.0000 C   0  0  0  0  0  4           0  0  0
   -2.4253   -0.0023    2.7237 C   0  0  0  0  0  4           0  0  0
   -2.8313    0.0353    0.1265 C   0  0  0  0  0  4           0  0  0
   -0.7816    0.0281   -1.1666 C   0  0  0  0  0  4           0  0  0
   -2.1711    0.0428   -1.1046 C   0  0  0  0  0  4           0  0  0
   -3.8456    0.6454    4.6949 C   0  0  0  0  0  4           0  0  0
   -6.1400   -0.5308    3.4492 C   0  0  0  0  0  4           0  0  0
   -4.8155   -0.5442    2.7790 C   0  0  0  0  0  4           0  0  0
   -5.1608    0.6108    5.3776 C   0  0  0  0  0  4           0  0  0
   -3.7198   -0.0011    3.3444 C   0  0  0  0  0  4           0  0  0
    1.4560   -0.0000    0.0000 C   0  0  0  0  0  4           0  0  0
    1.9435    2.4659    0.0468 C   0  0  0  0  0  4           0  0  0
   -6.2270    0.0639    4.7913 C   0  0  0  0  0  4           0  0  0
    2.2798    1.0617    0.0000 C   0  0  0  0  0  4           0  0  0
    0.9115    2.9963   -0.6294 C   0  0  0  0  0  4           0  0  0
    2.8661    3.3221    0.8671 C   0  0  0  0  0  4           0  0  0
  1 14  2  0     0  0
  2 15  2  0     0  0
  3 16  1  0     0  0
  4 17  1  0     0  0
  5  6  1  0     0  0
  5  7  1  0     0  0
  6  8  1  0     0  0
  6  9  2  0     0  0
  7 10  2  0     0  0
  8 10  1  0     0  0
  8 11  2  0     0  0
  9 12  1  0     0  0
  9 19  1  0     0  0
 10 18  1  0     0  0
 11 13  1  0     0  0
 12 13  2  0     0  0
 14 17  1  0     0  0
 14 18  1  0     0  0
 15 16  1  0     0  0
 15 21  1  0     0  0
 16 18  2  0     0  0
 17 21  2  0     0  0
 19 22  2  0     0  0
 20 22  1  0     0  0
 20 23  2  0     0  0
 20 24  1  0     0  0
M  END
> <standard_type>
IC50

> <# Confs.>
25

> <canonical_smiles>
O=C1C=C(O)C(C(C2=CNC3=C(/C=C/C(C)=C)C=CC=C32)=C1O)=O

> <standard_relation>
=

> <predicted_activity_value>
4.3979400086720375

> <actual_activity_value>
4.00436480540245

> <Compound>
19

> <publication_ID>
nan

> <standard_units>
nM

> hash
14664317817302608577

$$$$
21_
XXILIB    08252103423D 0   0.00000     0.00000

 35 36  0     1  0            999 V2000
  -12.4961   -0.2436    9.5435 S   0  0  0  0  0  2           0  0  0
  -10.5565    0.0923    5.7190 O   0  0  0  0  0  2           0  0  0
   -3.9873    0.0000    5.1831 O   0  0  0  0  0  2           0  0  0
   -7.8477    0.9828   10.3563 O   0  0  0  0  0  2           0  0  0
   -8.2659    0.0297    3.9919 N   0  0  0  0  0  3           0  0  0
   -7.0585    0.0121    3.4089 N   0  0  0  0  0  3           0  0  0
   -9.1650    0.0871    7.5593 N   0  0  0  0  0  3           0  0  0
  -11.3693   -0.4717    8.2845 C   0  0  0  0  0  4           0  0  0
  -11.3488    0.6094   10.4731 C   0  0  0  0  0  4           0  0  0
   -8.2392    0.0458    5.3617 C   0  0  0  0  0  4           0  0  0
   -6.2053    0.0120    4.4401 C   0  0  0  0  0  4           0  0  0
  -10.1431    0.1144    8.5418 C   0  0  0  0  0  4           0  0  0
  -10.1096    0.7052    9.8604 C   0  0  0  0  0  4           0  0  0
   -6.8954    0.0279    5.6787 C   0  0  0  0  0  4           0  0  0
   -9.4221    0.0774    6.1963 C   0  0  0  0  0  4           0  0  0
   -4.7648   -0.0000    4.2289 C   0  0  0  0  0  4           0  0  0
   -9.0093    1.3255   10.5614 C   0  0  0  0  0  4           0  0  0
   -4.2253   -0.0000    2.8150 C   0  0  0  0  0  4           0  0  0
   -2.7039   -0.0000    2.8150 C   0  0  0  0  0  4           0  0  0
   -2.1148   -0.0000    1.4075 C   0  0  0  0  0  4           0  0  0
   -0.5891    0.0000    1.4075 C   0  0  0  0  0  4           0  0  0
    0.0000   -0.0000    0.0000 C   0  0  0  0  0  4           0  0  0
    1.5257    0.0000   -0.0000 C   0  0  0  0  0  4           0  0  0
    2.1148    0.0000   -1.4075 C   0  0  0  0  0  4           0  0  0
    3.6405   -0.0000   -1.4075 C   0  0  0  0  0  4           0  0  0
    4.2296    0.0000   -2.8150 C   0  0  0  0  0  4           0  0  0
    5.7554   -0.0000   -2.8150 C   0  0  0  0  0  4           0  0  0
    6.3444    0.0000   -4.2225 C   0  0  0  0  0  4           0  0  0
    7.8702   -0.0000   -4.2225 C   0  0  0  0  0  4           0  0  0
    8.4593    0.0000   -5.6300 C   0  0  0  0  0  4           0  0  0
    9.9850   -0.0000   -5.6300 C   0  0  0  0  0  4           0  0  0
   10.5741    0.0000   -7.0375 C   0  0  0  0  0  4           0  0  0
   12.0999   -0.0000   -7.0375 C   0  0  0  0  0  4           0  0  0
   -9.3436    2.3796   11.5846 C   0  0  0  0  0  4           0  0  0
   12.6902    0.0000   -8.4401 C   0  0  0  0  0  4           0  0  0
  1  8  1  0     0  0
  1  9  1  0     0  0
  2 15  2  0     0  0
  3 16  2  0     0  0
  4 17  2  0     0  0
  5  6  1  0     0  0
  5 10  1  0     0  0
  6 11  2  0     0  0
  7 12  1  0     0  0
  7 15  1  0     0  0
  8 12  2  0     0  0
  9 13  2  0     0  0
 10 14  2  0     0  0
 10 15  1  0     0  0
 11 14  1  0     0  0
 11 16  1  0     0  0
 12 13  1  0     0  0
 13 17  1  0     0  0
 16 18  1  0     0  0
 17 34  1  0     0  0
 18 19  1  0     0  0
 19 20  1  0     0  0
 20 21  1  0     0  0
 21 22  1  0     0  0
 22 23  1  0     0  0
 23 24  1  0     0  0
 24 25  1  0     0  0
 25 26  1  0     0  0
 26 27  1  0     0  0
 27 28  1  0     0  0
 28 29  1  0     0  0
 29 30  1  0     0  0
 30 31  1  0     0  0
 31 32  1  0     0  0
 32 33  1  0     0  0
 33 35  1  0     0  0
M  END
> <standard_type>
pIC50

> <# Confs.>
25

> <canonical_smiles>
CC(C1=CSC=C1NC(C2=CC(C(CCCCCCCCCCCCCCCCC)=O)=NN2)=O)=O

> <standard_relation>
=

> <predicted_activity_value>
6.468521082957745

> <actual_activity_value>
6.920818753952375

> <Compound>
21

> <publication_ID>
Ma_2018

> <standard_units>
nM

> hash
15664984206525086107

$$$$
21_
XXILIB    08252103423D 0   0.00000     0.00000

 35 36  0     1  0            999 V2000
  -12.3896    0.7908    9.6207 S   0  0  0  0  0  2           0  0  0
  -10.5565    0.0923    5.7190 O   0  0  0  0  0  2           0  0  0
   -3.9873    0.0000    5.1831 O   0  0  0  0  0  2           0  0  0
   -8.9203   -1.1377   11.7564 O   0  0  0  0  0  2           0  0  0
   -8.2659    0.0297    3.9919 N   0  0  0  0  0  3           0  0  0
   -7.0585    0.0121    3.4089 N   0  0  0  0  0  3           0  0  0
   -9.1650    0.0871    7.5593 N   0  0  0  0  0  3           0  0  0
  -11.3481    0.7376    8.2719 C   0  0  0  0  0  4           0  0  0
  -11.2612   -0.0559   10.5789 C   0  0  0  0  0  4           0  0  0
   -8.2392    0.0458    5.3617 C   0  0  0  0  0  4           0  0  0
   -6.2053    0.0120    4.4401 C   0  0  0  0  0  4           0  0  0
  -10.1431    0.1144    8.5418 C   0  0  0  0  0  4           0  0  0
  -10.1116   -0.4071    9.8893 C   0  0  0  0  0  4           0  0  0
   -6.8954    0.0279    5.6787 C   0  0  0  0  0  4           0  0  0
   -9.4221    0.0774    6.1963 C   0  0  0  0  0  4           0  0  0
   -4.7648   -0.0000    4.2289 C   0  0  0  0  0  4           0  0  0
   -9.0985   -1.2030   10.5429 C   0  0  0  0  0  4           0  0  0
   -4.2253   -0.0000    2.8150 C   0  0  0  0  0  4           0  0  0
   -2.7039   -0.0000    2.8150 C   0  0  0  0  0  4           0  0  0
   -2.1148   -0.0000    1.4075 C   0  0  0  0  0  4           0  0  0
   -0.5891    0.0000    1.4075 C   0  0  0  0  0  4           0  0  0
    0.0000   -0.0000    0.0000 C   0  0  0  0  0  4           0  0  0
    1.5257    0.0000   -0.0000 C   0  0  0  0  0  4           0  0  0
    2.1148    0.0000   -1.4075 C   0  0  0  0  0  4           0  0  0
    3.6405   -0.0000   -1.4075 C   0  0  0  0  0  4           0  0  0
    4.2296    0.0000   -2.8150 C   0  0  0  0  0  4           0  0  0
    5.7554   -0.0000   -2.8150 C   0  0  0  0  0  4           0  0  0
    6.3444    0.0000   -4.2225 C   0  0  0  0  0  4           0  0  0
    7.8702   -0.0000   -4.2225 C   0  0  0  0  0  4           0  0  0
    8.4593    0.0000   -5.6300 C   0  0  0  0  0  4           0  0  0
    9.9850   -0.0000   -5.6300 C   0  0  0  0  0  4           0  0  0
   10.5741    0.0000   -7.0375 C   0  0  0  0  0  4           0  0  0
   12.0999   -0.0000   -7.0375 C   0  0  0  0  0  4           0  0  0
   -8.2405   -2.0852    9.6737 C   0  0  0  0  0  4           0  0  0
   12.6902    0.0000   -8.4401 C   0  0  0  0  0  4           0  0  0
  1  8  1  0     0  0
  1  9  1  0     0  0
  2 15  2  0     0  0
  3 16  2  0     0  0
  4 17  2  0     0  0
  5  6  1  0     0  0
  5 10  1  0     0  0
  6 11  2  0     0  0
  7 12  1  0     0  0
  7 15  1  0     0  0
  8 12  2  0     0  0
  9 13  2  0     0  0
 10 14  2  0     0  0
 10 15  1  0     0  0
 11 14  1  0     0  0
 11 16  1  0     0  0
 12 13  1  0     0  0
 13 17  1  0     0  0
 16 18  1  0     0  0
 17 34  1  0     0  0
 18 19  1  0     0  0
 19 20  1  0     0  0
 20 21  1  0     0  0
 21 22  1  0     0  0
 22 23  1  0     0  0
 23 24  1  0     0  0
 24 25  1  0     0  0
 25 26  1  0     0  0
 26 27  1  0     0  0
 27 28  1  0     0  0
 28 29  1  0     0  0
 29 30  1  0     0  0
 30 31  1  0     0  0
 31 32  1  0     0  0
 32 33  1  0     0  0
 33 35  1  0     0  0
M  END
> <standard_type>
pIC50

> <# Confs.>
25

> <canonical_smiles>
CC(C1=CSC=C1NC(C2=CC(C(CCCCCCCCCCCCCCCCC)=O)=NN2)=O)=O

> <standard_relation>
=

> <predicted_activity_value>
6.468521082957745

> <actual_activity_value>
6.920818753952375

> <Compound>
21

> <publication_ID>
Ma_2018

> <standard_units>
nM

> hash
15664984206525086107

$$$$
21_
XXILIB    08252103423D 0   0.00000     0.00000

 35 36  0     1  0            999 V2000
  -12.3896    0.7908    9.6207 S   0  0  0  0  0  2           0  0  0
  -10.5565    0.0923    5.7190 O   0  0  0  0  0  2           0  0  0
   -3.9873    0.0000    5.1831 O   0  0  0  0  0  2           0  0  0
   -8.3819   -1.9714    9.9067 O   0  0  0  0  0  2           0  0  0
   -8.2659    0.0297    3.9919 N   0  0  0  0  0  3           0  0  0
   -7.0585    0.0121    3.4089 N   0  0  0  0  0  3           0  0  0
   -9.1650    0.0871    7.5593 N   0  0  0  0  0  3           0  0  0
  -11.3481    0.7376    8.2719 C   0  0  0  0  0  4           0  0  0
  -11.2612   -0.0559   10.5789 C   0  0  0  0  0  4           0  0  0
   -8.2392    0.0458    5.3617 C   0  0  0  0  0  4           0  0  0
   -6.2053    0.0120    4.4401 C   0  0  0  0  0  4           0  0  0
  -10.1431    0.1144    8.5418 C   0  0  0  0  0  4           0  0  0
  -10.1116   -0.4071    9.8893 C   0  0  0  0  0  4           0  0  0
   -6.8954    0.0279    5.6787 C   0  0  0  0  0  4           0  0  0
   -9.4221    0.0774    6.1963 C   0  0  0  0  0  4           0  0  0
   -4.7648   -0.0000    4.2289 C   0  0  0  0  0  4           0  0  0
   -9.0985   -1.2030   10.5429 C   0  0  0  0  0  4           0  0  0
   -4.2253   -0.0000    2.8150 C   0  0  0  0  0  4           0  0  0
   -2.7039   -0.0000    2.8150 C   0  0  0  0  0  4           0  0  0
   -2.1148   -0.0000    1.4075 C   0  0  0  0  0  4           0  0  0
   -0.5891    0.0000    1.4075 C   0  0  0  0  0  4           0  0  0
    0.0000   -0.0000    0.0000 C   0  0  0  0  0  4           0  0  0
    1.5257    0.0000   -0.0000 C   0  0  0  0  0  4           0  0  0
    2.1148    0.0000   -1.4075 C   0  0  0  0  0  4           0  0  0
    3.6405   -0.0000   -1.4075 C   0  0  0  0  0  4           0  0  0
    4.2296    0.0000   -2.8150 C   0  0  0  0  0  4           0  0  0
    5.7554   -0.0000   -2.8150 C   0  0  0  0  0  4           0  0  0
    6.3444    0.0000   -4.2225 C   0  0  0  0  0  4           0  0  0
    7.8702   -0.0000   -4.2225 C   0  0  0  0  0  4           0  0  0
    8.4593    0.0000   -5.6300 C   0  0  0  0  0  4           0  0  0
    9.9850   -0.0000   -5.6300 C   0  0  0  0  0  4           0  0  0
   10.5741    0.0000   -7.0375 C   0  0  0  0  0  4           0  0  0
   12.0999   -0.0000   -7.0375 C   0  0  0  0  0  4           0  0  0
   -8.9825   -1.0861   12.0405 C   0  0  0  0  0  4           0  0  0
   12.6902    0.0000   -8.4401 C   0  0  0  0  0  4           0  0  0
  1  8  1  0     0  0
  1  9  1  0     0  0
  2 15  2  0     0  0
  3 16  2  0     0  0
  4 17  2  0     0  0
  5  6  1  0     0  0
  5 10  1  0     0  0
  6 11  2  0     0  0
  7 12  1  0     0  0
  7 15  1  0     0  0
  8 12  2  0     0  0
  9 13  2  0     0  0
 10 14  2  0     0  0
 10 15  1  0     0  0
 11 14  1  0     0  0
 11 16  1  0     0  0
 12 13  1  0     0  0
 13 17  1  0     0  0
 16 18  1  0     0  0
 17 34  1  0     0  0
 18 19  1  0     0  0
 19 20  1  0     0  0
 20 21  1  0     0  0
 21 22  1  0     0  0
 22 23  1  0     0  0
 23 24  1  0     0  0
 24 25  1  0     0  0
 25 26  1  0     0  0
 26 27  1  0     0  0
 27 28  1  0     0  0
 28 29  1  0     0  0
 29 30  1  0     0  0
 30 31  1  0     0  0
 31 32  1  0     0  0
 32 33  1  0     0  0
 33 35  1  0     0  0
M  END
> <standard_type>
pIC50

> <# Confs.>
25

> <canonical_smiles>
CC(C1=CSC=C1NC(C2=CC(C(CCCCCCCCCCCCCCCCC)=O)=NN2)=O)=O

> <standard_relation>
=

> <predicted_activity_value>
6.468521082957745

> <actual_activity_value>
6.920818753952375

> <Compound>
21

> <publication_ID>
Ma_2018

> <standard_units>
nM

> hash
15664984206525086107

$$$$
21_
XXILIB    08252103423D 0   0.00000     0.00000

 35 36  0     1  0            999 V2000
  -12.4961   -0.2436    9.5435 S   0  0  0  0  0  2           0  0  0
  -10.5565    0.0923    5.7190 O   0  0  0  0  0  2           0  0  0
   -3.9873    0.0000    5.1831 O   0  0  0  0  0  2           0  0  0
   -7.8477    0.9828   10.3563 O   0  0  0  0  0  2           0  0  0
   -8.2659    0.0297    3.9919 N   0  0  0  0  0  3           0  0  0
   -7.0585    0.0121    3.4089 N   0  0  0  0  0  3           0  0  0
   -9.1650    0.0871    7.5593 N   0  0  0  0  0  3           0  0  0
  -11.3693   -0.4717    8.2845 C   0  0  0  0  0  4           0  0  0
  -11.3488    0.6094   10.4731 C   0  0  0  0  0  4           0  0  0
   -8.2392    0.0458    5.3617 C   0  0  0  0  0  4           0  0  0
   -6.2053    0.0120    4.4401 C   0  0  0  0  0  4           0  0  0
  -10.1431    0.1144    8.5418 C   0  0  0  0  0  4           0  0  0
  -10.1096    0.7052    9.8604 C   0  0  0  0  0  4           0  0  0
   -6.8954    0.0279    5.6787 C   0  0  0  0  0  4           0  0  0
   -9.4221    0.0774    6.1963 C   0  0  0  0  0  4           0  0  0
   -4.7648   -0.0000    4.2289 C   0  0  0  0  0  4           0  0  0
   -9.0093    1.3255   10.5614 C   0  0  0  0  0  4           0  0  0
   -4.2253   -0.0000    2.8150 C   0  0  0  0  0  4           0  0  0
   -2.7039   -0.0000    2.8150 C   0  0  0  0  0  4           0  0  0
   -2.1148   -0.0000    1.4075 C   0  0  0  0  0  4           0  0  0
   -0.5891    0.0000    1.4075 C   0  0  0  0  0  4           0  0  0
    0.0000   -0.0000    0.0000 C   0  0  0  0  0  4           0  0  0
    1.5257   -0.0000    0.0000 C   0  0  0  0  0  4           0  0  0
    2.1148   -1.2189    0.7037 C   0  0  0  0  0  4           0  0  0
    3.6405   -1.2189    0.7037 C   0  0  0  0  0  4           0  0  0
    4.2296   -2.4378    1.4075 C   0  0  0  0  0  4           0  0  0
    5.7554   -2.4378    1.4075 C   0  0  0  0  0  4           0  0  0
    6.3444   -3.6568    2.1112 C   0  0  0  0  0  4           0  0  0
    7.8702   -3.6568    2.1112 C   0  0  0  0  0  4           0  0  0
    8.4593   -4.8757    2.8150 C   0  0  0  0  0  4           0  0  0
    9.9850   -4.8757    2.8150 C   0  0  0  0  0  4           0  0  0
   10.5741   -6.0946    3.5187 C   0  0  0  0  0  4           0  0  0
   12.0999   -6.0946    3.5187 C   0  0  0  0  0  4           0  0  0
   -9.3436    2.3796   11.5846 C   0  0  0  0  0  4           0  0  0
   12.6902   -7.3093    4.2200 C   0  0  0  0  0  4           0  0  0
  1  8  1  0     0  0
  1  9  1  0     0  0
  2 15  2  0     0  0
  3 16  2  0     0  0
  4 17  2  0     0  0
  5  6  1  0     0  0
  5 10  1  0     0  0
  6 11  2  0     0  0
  7 12  1  0     0  0
  7 15  1  0     0  0
  8 12  2  0     0  0
  9 13  2  0     0  0
 10 14  2  0     0  0
 10 15  1  0     0  0
 11 14  1  0     0  0
 11 16  1  0     0  0
 12 13  1  0     0  0
 13 17  1  0     0  0
 16 18  1  0     0  0
 17 34  1  0     0  0
 18 19  1  0     0  0
 19 20  1  0     0  0
 20 21  1  0     0  0
 21 22  1  0     0  0
 22 23  1  0     0  0
 23 24  1  0     0  0
 24 25  1  0     0  0
 25 26  1  0     0  0
 26 27  1  0     0  0
 27 28  1  0     0  0
 28 29  1  0     0  0
 29 30  1  0     0  0
 30 31  1  0     0  0
 31 32  1  0     0  0
 32 33  1  0     0  0
 33 35  1  0     0  0
M  END
> <standard_type>
pIC50

> <# Confs.>
25

> <canonical_smiles>
CC(C1=CSC=C1NC(C2=CC(C(CCCCCCCCCCCCCCCCC)=O)=NN2)=O)=O

> <standard_relation>
=

> <predicted_activity_value>
6.468521082957745

> <actual_activity_value>
6.920818753952375

> <Compound>
21

> <publication_ID>
Ma_2018

> <standard_units>
nM

> hash
15664984206525086107

$$$$
21_
XXILIB    08252103423D 0   0.00000     0.00000

 35 36  0     1  0            999 V2000
  -12.4961   -0.2436    9.5435 S   0  0  0  0  0  2           0  0  0
  -10.5565    0.0923    5.7190 O   0  0  0  0  0  2           0  0  0
   -3.9873    0.0000    5.1831 O   0  0  0  0  0  2           0  0  0
   -7.8477    0.9828   10.3563 O   0  0  0  0  0  2           0  0  0
   -8.2659    0.0297    3.9919 N   0  0  0  0  0  3           0  0  0
   -7.0585    0.0121    3.4089 N   0  0  0  0  0  3           0  0  0
   -9.1650    0.0871    7.5593 N   0  0  0  0  0  3           0  0  0
  -11.3693   -0.4717    8.2845 C   0  0  0  0  0  4           0  0  0
  -11.3488    0.6094   10.4731 C   0  0  0  0  0  4           0  0  0
   -8.2392    0.0458    5.3617 C   0  0  0  0  0  4           0  0  0
   -6.2053    0.0120    4.4401 C   0  0  0  0  0  4           0  0  0
  -10.1431    0.1144    8.5418 C   0  0  0  0  0  4           0  0  0
  -10.1096    0.7052    9.8604 C   0  0  0  0  0  4           0  0  0
   -6.8954    0.0279    5.6787 C   0  0  0  0  0  4           0  0  0
   -9.4221    0.0774    6.1963 C   0  0  0  0  0  4           0  0  0
   -4.7648   -0.0000    4.2289 C   0  0  0  0  0  4           0  0  0
   -9.0093    1.3255   10.5614 C   0  0  0  0  0  4           0  0  0
   -4.2253   -0.0000    2.8150 C   0  0  0  0  0  4           0  0  0
   -2.7039   -0.0000    2.8150 C   0  0  0  0  0  4           0  0  0
   -2.1148   -0.0000    1.4075 C   0  0  0  0  0  4           0  0  0
   -0.5891    0.0000    1.4075 C   0  0  0  0  0  4           0  0  0
    0.0000   -0.0000    0.0000 C   0  0  0  0  0  4           0  0  0
    1.5257   -0.0000    0.0000 C   0  0  0  0  0  4           0  0  0
    2.1148    0.0000   -1.4075 C   0  0  0  0  0  4           0  0  0
    3.6405    0.0000   -1.4075 C   0  0  0  0  0  4           0  0  0
    4.2296   -1.2189   -0.7037 C   0  0  0  0  0  4           0  0  0
    5.7554   -1.2189   -0.7037 C   0  0  0  0  0  4           0  0  0
    6.3444   -2.4378    0.0000 C   0  0  0  0  0  4           0  0  0
    7.8702   -2.4378    0.0000 C   0  0  0  0  0  4           0  0  0
    8.4593   -3.6568    0.7037 C   0  0  0  0  0  4           0  0  0
    9.9850   -3.6568    0.7037 C   0  0  0  0  0  4           0  0  0
   10.5741   -4.8757    1.4075 C   0  0  0  0  0  4           0  0  0
   12.0999   -4.8757    1.4075 C   0  0  0  0  0  4           0  0  0
   -9.3436    2.3796   11.5846 C   0  0  0  0  0  4           0  0  0
   12.6902   -6.0904    2.1088 C   0  0  0  0  0  4           0  0  0
  1  8  1  0     0  0
  1  9  1  0     0  0
  2 15  2  0     0  0
  3 16  2  0     0  0
  4 17  2  0     0  0
  5  6  1  0     0  0
  5 10  1  0     0  0
  6 11  2  0     0  0
  7 12  1  0     0  0
  7 15  1  0     0  0
  8 12  2  0     0  0
  9 13  2  0     0  0
 10 14  2  0     0  0
 10 15  1  0     0  0
 11 14  1  0     0  0
 11 16  1  0     0  0
 12 13  1  0     0  0
 13 17  1  0     0  0
 16 18  1  0     0  0
 17 34  1  0     0  0
 18 19  1  0     0  0
 19 20  1  0     0  0
 20 21  1  0     0  0
 21 22  1  0     0  0
 22 23  1  0     0  0
 23 24  1  0     0  0
 24 25  1  0     0  0
 25 26  1  0     0  0
 26 27  1  0     0  0
 27 28  1  0     0  0
 28 29  1  0     0  0
 29 30  1  0     0  0
 30 31  1  0     0  0
 31 32  1  0     0  0
 32 33  1  0     0  0
 33 35  1  0     0  0
M  END
> <standard_type>
pIC50

> <# Confs.>
25

> <canonical_smiles>
CC(C1=CSC=C1NC(C2=CC(C(CCCCCCCCCCCCCCCCC)=O)=NN2)=O)=O

> <standard_relation>
=

> <predicted_activity_value>
6.468521082957745

> <actual_activity_value>
6.920818753952375

> <Compound>
21

> <publication_ID>
Ma_2018

> <standard_units>
nM

> hash
15664984206525086107

$$$$
21_
XXILIB    08252103423D 0   0.00000     0.00000

 35 36  0     1  0            999 V2000
  -12.4961   -0.2436    9.5435 S   0  0  0  0  0  2           0  0  0
  -10.5565    0.0923    5.7190 O   0  0  0  0  0  2           0  0  0
   -3.9873    0.0000    5.1831 O   0  0  0  0  0  2           0  0  0
   -7.8477    0.9828   10.3563 O   0  0  0  0  0  2           0  0  0
   -8.2659    0.0297    3.9919 N   0  0  0  0  0  3           0  0  0
   -7.0585    0.0121    3.4089 N   0  0  0  0  0  3           0  0  0
   -9.1650    0.0871    7.5593 N   0  0  0  0  0  3           0  0  0
  -11.3693   -0.4717    8.2845 C   0  0  0  0  0  4           0  0  0
  -11.3488    0.6094   10.4731 C   0  0  0  0  0  4           0  0  0
   -8.2392    0.0458    5.3617 C   0  0  0  0  0  4           0  0  0
   -6.2053    0.0120    4.4401 C   0  0  0  0  0  4           0  0  0
  -10.1431    0.1144    8.5418 C   0  0  0  0  0  4           0  0  0
  -10.1096    0.7052    9.8604 C   0  0  0  0  0  4           0  0  0
   -6.8954    0.0279    5.6787 C   0  0  0  0  0  4           0  0  0
   -9.4221    0.0774    6.1963 C   0  0  0  0  0  4           0  0  0
   -4.7648   -0.0000    4.2289 C   0  0  0  0  0  4           0  0  0
   -9.0093    1.3255   10.5614 C   0  0  0  0  0  4           0  0  0
   -4.2253   -0.0000    2.8150 C   0  0  0  0  0  4           0  0  0
   -2.7039   -0.0000    2.8150 C   0  0  0  0  0  4           0  0  0
   -2.1148   -0.0000    1.4075 C   0  0  0  0  0  4           0  0  0
   -0.5891    0.0000    1.4075 C   0  0  0  0  0  4           0  0  0
    0.0000   -0.0000    0.0000 C   0  0  0  0  0  4           0  0  0
    1.5257    0.0000    0.0000 C   0  0  0  0  0  4           0  0  0
    2.1148    0.0000   -1.4075 C   0  0  0  0  0  4           0  0  0
    1.6930    1.2189   -2.2226 C   0  0  0  0  0  4           0  0  0
    2.2820    1.2189   -3.6301 C   0  0  0  0  0  4           0  0  0
    1.8603    2.4378   -4.4451 C   0  0  0  0  0  4           0  0  0
    2.4493    2.4378   -5.8526 C   0  0  0  0  0  4           0  0  0
    2.0275    3.6568   -6.6677 C   0  0  0  0  0  4           0  0  0
    2.6166    3.6568   -8.0752 C   0  0  0  0  0  4           0  0  0
    2.1948    4.8757   -8.8903 C   0  0  0  0  0  4           0  0  0
    2.7839    4.8757  -10.2978 C   0  0  0  0  0  4           0  0  0
    2.3621    6.0946  -11.1128 C   0  0  0  0  0  4           0  0  0
   -9.3436    2.3796   11.5846 C   0  0  0  0  0  4           0  0  0
    2.9482    6.0973  -12.5172 C   0  0  0  0  0  4           0  0  0
  1  8  1  0     0  0
  1  9  1  0     0  0
  2 15  2  0     0  0
  3 16  2  0     0  0
  4 17  2  0     0  0
  5  6  1  0     0  0
  5 10  1  0     0  0
  6 11  2  0     0  0
  7 12  1  0     0  0
  7 15  1  0     0  0
  8 12  2  0     0  0
  9 13  2  0     0  0
 10 14  2  0     0  0
 10 15  1  0     0  0
 11 14  1  0     0  0
 11 16  1  0     0  0
 12 13  1  0     0  0
 13 17  1  0     0  0
 16 18  1  0     0  0
 17 34  1  0     0  0
 18 19  1  0     0  0
 19 20  1  0     0  0
 20 21  1  0     0  0
 21 22  1  0     0  0
 22 23  1  0     0  0
 23 24  1  0     0  0
 24 25  1  0     0  0
 25 26  1  0     0  0
 26 27  1  0     0  0
 27 28  1  0     0  0
 28 29  1  0     0  0
 29 30  1  0     0  0
 30 31  1  0     0  0
 31 32  1  0     0  0
 32 33  1  0     0  0
 33 35  1  0     0  0
M  END
> <standard_type>
pIC50

> <# Confs.>
25

> <canonical_smiles>
CC(C1=CSC=C1NC(C2=CC(C(CCCCCCCCCCCCCCCCC)=O)=NN2)=O)=O

> <standard_relation>
=

> <predicted_activity_value>
6.468521082957745

> <actual_activity_value>
6.920818753952375

> <Compound>
21

> <publication_ID>
Ma_2018

> <standard_units>
nM

> hash
15664984206525086107

$$$$
21_
XXILIB    08252103423D 0   0.00000     0.00000

 35 36  0     1  0            999 V2000
  -12.4961   -0.2436    9.5435 S   0  0  0  0  0  2           0  0  0
  -10.5565    0.0923    5.7190 O   0  0  0  0  0  2           0  0  0
   -3.9873    0.0000    5.1831 O   0  0  0  0  0  2           0  0  0
   -7.8477    0.9828   10.3563 O   0  0  0  0  0  2           0  0  0
   -8.2659    0.0297    3.9919 N   0  0  0  0  0  3           0  0  0
   -7.0585    0.0121    3.4089 N   0  0  0  0  0  3           0  0  0
   -9.1650    0.0871    7.5593 N   0  0  0  0  0  3           0  0  0
  -11.3693   -0.4717    8.2845 C   0  0  0  0  0  4           0  0  0
  -11.3488    0.6094   10.4731 C   0  0  0  0  0  4           0  0  0
   -8.2392    0.0458    5.3617 C   0  0  0  0  0  4           0  0  0
   -6.2053    0.0120    4.4401 C   0  0  0  0  0  4           0  0  0
  -10.1431    0.1144    8.5418 C   0  0  0  0  0  4           0  0  0
  -10.1096    0.7052    9.8604 C   0  0  0  0  0  4           0  0  0
   -6.8954    0.0279    5.6787 C   0  0  0  0  0  4           0  0  0
   -9.4221    0.0774    6.1963 C   0  0  0  0  0  4           0  0  0
   -4.7648   -0.0000    4.2289 C   0  0  0  0  0  4           0  0  0
   -9.0093    1.3255   10.5614 C   0  0  0  0  0  4           0  0  0
   -4.2253   -0.0000    2.8150 C   0  0  0  0  0  4           0  0  0
   -2.7039   -0.0000    2.8150 C   0  0  0  0  0  4           0  0  0
   -2.1148   -0.0000    1.4075 C   0  0  0  0  0  4           0  0  0
   -0.5891    0.0000    1.4075 C   0  0  0  0  0  4           0  0  0
    0.0000   -0.0000    0.0000 C   0  0  0  0  0  4           0  0  0
    1.5257    0.0000   -0.0000 C   0  0  0  0  0  4           0  0  0
    2.1148    0.0000   -1.4075 C   0  0  0  0  0  4           0  0  0
    3.6405   -0.0000   -1.4075 C   0  0  0  0  0  4           0  0  0
    4.2296    0.0000   -2.8150 C   0  0  0  0  0  4           0  0  0
    3.8078    1.2189   -3.6301 C   0  0  0  0  0  4           0  0  0
    4.3969    1.2189   -5.0376 C   0  0  0  0  0  4           0  0  0
    3.9751    2.4378   -5.8526 C   0  0  0  0  0  4           0  0  0
    4.5641    2.4378   -7.2601 C   0  0  0  0  0  4           0  0  0
    4.1424    3.6568   -8.0752 C   0  0  0  0  0  4           0  0  0
    4.7314    3.6568   -9.4827 C   0  0  0  0  0  4           0  0  0
    4.3096    4.8757  -10.2978 C   0  0  0  0  0  4           0  0  0
   -9.3436    2.3796   11.5846 C   0  0  0  0  0  4           0  0  0
    4.8957    4.8784  -11.7021 C   0  0  0  0  0  4           0  0  0
  1  8  1  0     0  0
  1  9  1  0     0  0
  2 15  2  0     0  0
  3 16  2  0     0  0
  4 17  2  0     0  0
  5  6  1  0     0  0
  5 10  1  0     0  0
  6 11  2  0     0  0
  7 12  1  0     0  0
  7 15  1  0     0  0
  8 12  2  0     0  0
  9 13  2  0     0  0
 10 14  2  0     0  0
 10 15  1  0     0  0
 11 14  1  0     0  0
 11 16  1  0     0  0
 12 13  1  0     0  0
 13 17  1  0     0  0
 16 18  1  0     0  0
 17 34  1  0     0  0
 18 19  1  0     0  0
 19 20  1  0     0  0
 20 21  1  0     0  0
 21 22  1  0     0  0
 22 23  1  0     0  0
 23 24  1  0     0  0
 24 25  1  0     0  0
 25 26  1  0     0  0
 26 27  1  0     0  0
 27 28  1  0     0  0
 28 29  1  0     0  0
 29 30  1  0     0  0
 30 31  1  0     0  0
 31 32  1  0     0  0
 32 33  1  0     0  0
 33 35  1  0     0  0
M  END
> <standard_type>
pIC50

> <# Confs.>
25

> <canonical_smiles>
CC(C1=CSC=C1NC(C2=CC(C(CCCCCCCCCCCCCCCCC)=O)=NN2)=O)=O

> <standard_relation>
=

> <predicted_activity_value>
6.468521082957745

> <actual_activity_value>
6.920818753952375

> <Compound>
21

> <publication_ID>
Ma_2018

> <standard_units>
nM

> hash
15664984206525086107

$$$$
21_
XXILIB    08252103423D 0   0.00000     0.00000

 35 36  0     1  0            999 V2000
  -12.4961   -0.2436    9.5435 S   0  0  0  0  0  2           0  0  0
  -10.5565    0.0923    5.7190 O   0  0  0  0  0  2           0  0  0
   -3.9873    0.0000    5.1831 O   0  0  0  0  0  2           0  0  0
   -7.8477    0.9828   10.3563 O   0  0  0  0  0  2           0  0  0
   -8.2659    0.0297    3.9919 N   0  0  0  0  0  3           0  0  0
   -7.0585    0.0121    3.4089 N   0  0  0  0  0  3           0  0  0
   -9.1650    0.0871    7.5593 N   0  0  0  0  0  3           0  0  0
  -11.3693   -0.4717    8.2845 C   0  0  0  0  0  4           0  0  0
  -11.3488    0.6094   10.4731 C   0  0  0  0  0  4           0  0  0
   -8.2392    0.0458    5.3617 C   0  0  0  0  0  4           0  0  0
   -6.2053    0.0120    4.4401 C   0  0  0  0  0  4           0  0  0
  -10.1431    0.1144    8.5418 C   0  0  0  0  0  4           0  0  0
  -10.1096    0.7052    9.8604 C   0  0  0  0  0  4           0  0  0
   -6.8954    0.0279    5.6787 C   0  0  0  0  0  4           0  0  0
   -9.4221    0.0774    6.1963 C   0  0  0  0  0  4           0  0  0
   -4.7648   -0.0000    4.2289 C   0  0  0  0  0  4           0  0  0
   -9.0093    1.3255   10.5614 C   0  0  0  0  0  4           0  0  0
   -4.2253   -0.0000    2.8150 C   0  0  0  0  0  4           0  0  0
   -2.7039   -0.0000    2.8150 C   0  0  0  0  0  4           0  0  0
   -2.1148   -0.0000    1.4075 C   0  0  0  0  0  4           0  0  0
   -0.5891    0.0000    1.4075 C   0  0  0  0  0  4           0  0  0
    0.0000   -0.0000    0.0000 C   0  0  0  0  0  4           0  0  0
    1.5257   -0.0000    0.0000 C   0  0  0  0  0  4           0  0  0
    2.1148    0.0000   -1.4075 C   0  0  0  0  0  4           0  0  0
    3.6405   -0.0000   -1.4075 C   0  0  0  0  0  4           0  0  0
    4.2296    0.0000   -2.8150 C   0  0  0  0  0  4           0  0  0
    5.7554   -0.0000   -2.8150 C   0  0  0  0  0  4           0  0  0
    6.3444   -1.2189   -2.1112 C   0  0  0  0  0  4           0  0  0
    7.8702   -1.2189   -2.1112 C   0  0  0  0  0  4           0  0  0
    8.4593   -2.4378   -1.4075 C   0  0  0  0  0  4           0  0  0
    9.9850   -2.4378   -1.4075 C   0  0  0  0  0  4           0  0  0
   10.5741   -3.6568   -0.7037 C   0  0  0  0  0  4           0  0  0
   12.0999   -3.6568   -0.7037 C   0  0  0  0  0  4           0  0  0
   -9.3436    2.3796   11.5846 C   0  0  0  0  0  4           0  0  0
   12.6902   -4.8715   -0.0024 C   0  0  0  0  0  4           0  0  0
  1  8  1  0     0  0
  1  9  1  0     0  0
  2 15  2  0     0  0
  3 16  2  0     0  0
  4 17  2  0     0  0
  5  6  1  0     0  0
  5 10  1  0     0  0
  6 11  2  0     0  0
  7 12  1  0     0  0
  7 15  1  0     0  0
  8 12  2  0     0  0
  9 13  2  0     0  0
 10 14  2  0     0  0
 10 15  1  0     0  0
 11 14  1  0     0  0
 11 16  1  0     0  0
 12 13  1  0     0  0
 13 17  1  0     0  0
 16 18  1  0     0  0
 17 34  1  0     0  0
 18 19  1  0     0  0
 19 20  1  0     0  0
 20 21  1  0     0  0
 21 22  1  0     0  0
 22 23  1  0     0  0
 23 24  1  0     0  0
 24 25  1  0     0  0
 25 26  1  0     0  0
 26 27  1  0     0  0
 27 28  1  0     0  0
 28 29  1  0     0  0
 29 30  1  0     0  0
 30 31  1  0     0  0
 31 32  1  0     0  0
 32 33  1  0     0  0
 33 35  1  0     0  0
M  END
> <standard_type>
pIC50

> <# Confs.>
25

> <canonical_smiles>
CC(C1=CSC=C1NC(C2=CC(C(CCCCCCCCCCCCCCCCC)=O)=NN2)=O)=O

> <standard_relation>
=

> <predicted_activity_value>
6.468521082957745

> <actual_activity_value>
6.920818753952375

> <Compound>
21

> <publication_ID>
Ma_2018

> <standard_units>
nM

> hash
15664984206525086107

$$$$
21_
XXILIB    08252103423D 0   0.00000     0.00000

 35 36  0     1  0            999 V2000
  -12.4961   -0.2436    9.5435 S   0  0  0  0  0  2           0  0  0
  -10.5565    0.0923    5.7190 O   0  0  0  0  0  2           0  0  0
   -3.9873    0.0000    5.1831 O   0  0  0  0  0  2           0  0  0
   -7.8477    0.9828   10.3563 O   0  0  0  0  0  2           0  0  0
   -8.2659    0.0297    3.9919 N   0  0  0  0  0  3           0  0  0
   -7.0585    0.0121    3.4089 N   0  0  0  0  0  3           0  0  0
   -9.1650    0.0871    7.5593 N   0  0  0  0  0  3           0  0  0
  -11.3693   -0.4717    8.2845 C   0  0  0  0  0  4           0  0  0
  -11.3488    0.6094   10.4731 C   0  0  0  0  0  4           0  0  0
   -8.2392    0.0458    5.3617 C   0  0  0  0  0  4           0  0  0
   -6.2053    0.0120    4.4401 C   0  0  0  0  0  4           0  0  0
  -10.1431    0.1144    8.5418 C   0  0  0  0  0  4           0  0  0
  -10.1096    0.7052    9.8604 C   0  0  0  0  0  4           0  0  0
   -6.8954    0.0279    5.6787 C   0  0  0  0  0  4           0  0  0
   -9.4221    0.0774    6.1963 C   0  0  0  0  0  4           0  0  0
   -4.7648   -0.0000    4.2289 C   0  0  0  0  0  4           0  0  0
   -9.0093    1.3255   10.5614 C   0  0  0  0  0  4           0  0  0
   -4.2253   -0.0000    2.8150 C   0  0  0  0  0  4           0  0  0
   -2.7039   -0.0000    2.8150 C   0  0  0  0  0  4           0  0  0
   -2.1148   -0.0000    1.4075 C   0  0  0  0  0  4           0  0  0
   -0.5891    0.0000    1.4075 C   0  0  0  0  0  4           0  0  0
    0.0000   -0.0000    0.0000 C   0  0  0  0  0  4           0  0  0
    1.5257    0.0000   -0.0000 C   0  0  0  0  0  4           0  0  0
    2.1148    0.0000   -1.4075 C   0  0  0  0  0  4           0  0  0
    3.6405    0.0000   -1.4075 C   0  0  0  0  0  4           0  0  0
    4.2296    0.0000   -2.8150 C   0  0  0  0  0  4           0  0  0
    5.7554    0.0000   -2.8150 C   0  0  0  0  0  4           0  0  0
    6.3444    0.0000   -4.2225 C   0  0  0  0  0  4           0  0  0
    5.9227    1.2189   -5.0376 C   0  0  0  0  0  4           0  0  0
    6.5117    1.2189   -6.4450 C   0  0  0  0  0  4           0  0  0
    6.0899    2.4378   -7.2601 C   0  0  0  0  0  4           0  0  0
    6.6790    2.4378   -8.6676 C   0  0  0  0  0  4           0  0  0
    6.2572    3.6568   -9.4827 C   0  0  0  0  0  4           0  0  0
   -9.3436    2.3796   11.5846 C   0  0  0  0  0  4           0  0  0
    6.8433    3.6594  -10.8871 C   0  0  0  0  0  4           0  0  0
  1  8  1  0     0  0
  1  9  1  0     0  0
  2 15  2  0     0  0
  3 16  2  0     0  0
  4 17  2  0     0  0
  5  6  1  0     0  0
  5 10  1  0     0  0
  6 11  2  0     0  0
  7 12  1  0     0  0
  7 15  1  0     0  0
  8 12  2  0     0  0
  9 13  2  0     0  0
 10 14  2  0     0  0
 10 15  1  0     0  0
 11 14  1  0     0  0
 11 16  1  0     0  0
 12 13  1  0     0  0
 13 17  1  0     0  0
 16 18  1  0     0  0
 17 34  1  0     0  0
 18 19  1  0     0  0
 19 20  1  0     0  0
 20 21  1  0     0  0
 21 22  1  0     0  0
 22 23  1  0     0  0
 23 24  1  0     0  0
 24 25  1  0     0  0
 25 26  1  0     0  0
 26 27  1  0     0  0
 27 28  1  0     0  0
 28 29  1  0     0  0
 29 30  1  0     0  0
 30 31  1  0     0  0
 31 32  1  0     0  0
 32 33  1  0     0  0
 33 35  1  0     0  0
M  END
> <standard_type>
pIC50

> <# Confs.>
25

> <canonical_smiles>
CC(C1=CSC=C1NC(C2=CC(C(CCCCCCCCCCCCCCCCC)=O)=NN2)=O)=O

> <standard_relation>
=

> <predicted_activity_value>
6.468521082957745

> <actual_activity_value>
6.920818753952375

> <Compound>
21

> <publication_ID>
Ma_2018

> <standard_units>
nM

> hash
15664984206525086107

$$$$
21_
XXILIB    08252103423D 0   0.00000     0.00000

 35 36  0     1  0            999 V2000
  -12.4961   -0.2436    9.5435 S   0  0  0  0  0  2           0  0  0
  -10.5565    0.0923    5.7190 O   0  0  0  0  0  2           0  0  0
   -3.9873    0.0000    5.1831 O   0  0  0  0  0  2           0  0  0
   -7.8477    0.9828   10.3563 O   0  0  0  0  0  2           0  0  0
   -8.2659    0.0297    3.9919 N   0  0  0  0  0  3           0  0  0
   -7.0585    0.0121    3.4089 N   0  0  0  0  0  3           0  0  0
   -9.1650    0.0871    7.5593 N   0  0  0  0  0  3           0  0  0
  -11.3693   -0.4717    8.2845 C   0  0  0  0  0  4           0  0  0
  -11.3488    0.6094   10.4731 C   0  0  0  0  0  4           0  0  0
   -8.2392    0.0458    5.3617 C   0  0  0  0  0  4           0  0  0
   -6.2053    0.0120    4.4401 C   0  0  0  0  0  4           0  0  0
  -10.1431    0.1144    8.5418 C   0  0  0  0  0  4           0  0  0
  -10.1096    0.7052    9.8604 C   0  0  0  0  0  4           0  0  0
   -6.8954    0.0279    5.6787 C   0  0  0  0  0  4           0  0  0
   -9.4221    0.0774    6.1963 C   0  0  0  0  0  4           0  0  0
   -4.7648   -0.0000    4.2289 C   0  0  0  0  0  4           0  0  0
   -9.0093    1.3255   10.5614 C   0  0  0  0  0  4           0  0  0
   -4.2253   -0.0000    2.8150 C   0  0  0  0  0  4           0  0  0
   -2.7039   -0.0000    2.8150 C   0  0  0  0  0  4           0  0  0
   -2.1148   -0.0000    1.4075 C   0  0  0  0  0  4           0  0  0
   -0.5891    0.0000    1.4075 C   0  0  0  0  0  4           0  0  0
    0.0000   -0.0000    0.0000 C   0  0  0  0  0  4           0  0  0
    1.5257    0.0000   -0.0000 C   0  0  0  0  0  4           0  0  0
    2.1148    0.0000   -1.4075 C   0  0  0  0  0  4           0  0  0
    3.6405   -0.0000   -1.4075 C   0  0  0  0  0  4           0  0  0
    4.2296    0.0000   -2.8150 C   0  0  0  0  0  4           0  0  0
    5.7554   -0.0000   -2.8150 C   0  0  0  0  0  4           0  0  0
    6.3444    0.0000   -4.2225 C   0  0  0  0  0  4           0  0  0
    7.8702   -0.0000   -4.2225 C   0  0  0  0  0  4           0  0  0
    8.4593   -1.2189   -3.5187 C   0  0  0  0  0  4           0  0  0
    9.9850   -1.2189   -3.5187 C   0  0  0  0  0  4           0  0  0
   10.5741   -2.4378   -2.8150 C   0  0  0  0  0  4           0  0  0
   12.0999   -2.4378   -2.8150 C   0  0  0  0  0  4           0  0  0
   -9.3436    2.3796   11.5846 C   0  0  0  0  0  4           0  0  0
   12.6902   -3.6525   -2.1137 C   0  0  0  0  0  4           0  0  0
  1  8  1  0     0  0
  1  9  1  0     0  0
  2 15  2  0     0  0
  3 16  2  0     0  0
  4 17  2  0     0  0
  5  6  1  0     0  0
  5 10  1  0     0  0
  6 11  2  0     0  0
  7 12  1  0     0  0
  7 15  1  0     0  0
  8 12  2  0     0  0
  9 13  2  0     0  0
 10 14  2  0     0  0
 10 15  1  0     0  0
 11 14  1  0     0  0
 11 16  1  0     0  0
 12 13  1  0     0  0
 13 17  1  0     0  0
 16 18  1  0     0  0
 17 34  1  0     0  0
 18 19  1  0     0  0
 19 20  1  0     0  0
 20 21  1  0     0  0
 21 22  1  0     0  0
 22 23  1  0     0  0
 23 24  1  0     0  0
 24 25  1  0     0  0
 25 26  1  0     0  0
 26 27  1  0     0  0
 27 28  1  0     0  0
 28 29  1  0     0  0
 29 30  1  0     0  0
 30 31  1  0     0  0
 31 32  1  0     0  0
 32 33  1  0     0  0
 33 35  1  0     0  0
M  END
> <standard_type>
pIC50

> <# Confs.>
25

> <canonical_smiles>
CC(C1=CSC=C1NC(C2=CC(C(CCCCCCCCCCCCCCCCC)=O)=NN2)=O)=O

> <standard_relation>
=

> <predicted_activity_value>
6.468521082957745

> <actual_activity_value>
6.920818753952375

> <Compound>
21

> <publication_ID>
Ma_2018

> <standard_units>
nM

> hash
15664984206525086107

$$$$
21_
XXILIB    08252103423D 0   0.00000     0.00000

 35 36  0     1  0            999 V2000
  -12.4961   -0.2436    9.5435 S   0  0  0  0  0  2           0  0  0
  -10.5565    0.0923    5.7190 O   0  0  0  0  0  2           0  0  0
   -3.9873    0.0000    5.1831 O   0  0  0  0  0  2           0  0  0
   -7.8477    0.9828   10.3563 O   0  0  0  0  0  2           0  0  0
   -8.2659    0.0297    3.9919 N   0  0  0  0  0  3           0  0  0
   -7.0585    0.0121    3.4089 N   0  0  0  0  0  3           0  0  0
   -9.1650    0.0871    7.5593 N   0  0  0  0  0  3           0  0  0
  -11.3693   -0.4717    8.2845 C   0  0  0  0  0  4           0  0  0
  -11.3488    0.6094   10.4731 C   0  0  0  0  0  4           0  0  0
   -8.2392    0.0458    5.3617 C   0  0  0  0  0  4           0  0  0
   -6.2053    0.0120    4.4401 C   0  0  0  0  0  4           0  0  0
  -10.1431    0.1144    8.5418 C   0  0  0  0  0  4           0  0  0
  -10.1096    0.7052    9.8604 C   0  0  0  0  0  4           0  0  0
   -6.8954    0.0279    5.6787 C   0  0  0  0  0  4           0  0  0
   -9.4221    0.0774    6.1963 C   0  0  0  0  0  4           0  0  0
   -4.7648   -0.0000    4.2289 C   0  0  0  0  0  4           0  0  0
   -9.0093    1.3255   10.5614 C   0  0  0  0  0  4           0  0  0
   -4.2253   -0.0000    2.8150 C   0  0  0  0  0  4           0  0  0
   -2.7039   -0.0000    2.8150 C   0  0  0  0  0  4           0  0  0
   -2.1148   -0.0000    1.4075 C   0  0  0  0  0  4           0  0  0
   -0.5891    0.0000    1.4075 C   0  0  0  0  0  4           0  0  0
    0.0000   -0.0000    0.0000 C   0  0  0  0  0  4           0  0  0
    1.5257    0.0000   -0.0000 C   0  0  0  0  0  4           0  0  0
    2.1148    0.0000   -1.4075 C   0  0  0  0  0  4           0  0  0
    3.6405   -0.0000   -1.4075 C   0  0  0  0  0  4           0  0  0
    4.2296    0.0000   -2.8150 C   0  0  0  0  0  4           0  0  0
    5.7554   -0.0000   -2.8150 C   0  0  0  0  0  4           0  0  0
    6.3444    0.0000   -4.2225 C   0  0  0  0  0  4           0  0  0
    7.8702   -0.0000   -4.2225 C   0  0  0  0  0  4           0  0  0
    8.4593    0.0000   -5.6300 C   0  0  0  0  0  4           0  0  0
    8.0375    1.2189   -6.4450 C   0  0  0  0  0  4           0  0  0
    8.6265    1.2189   -7.8525 C   0  0  0  0  0  4           0  0  0
    8.2048    2.4378   -8.6676 C   0  0  0  0  0  4           0  0  0
   -9.3436    2.3796   11.5846 C   0  0  0  0  0  4           0  0  0
    8.7908    2.4405  -10.0720 C   0  0  0  0  0  4           0  0  0
  1  8  1  0     0  0
  1  9  1  0     0  0
  2 15  2  0     0  0
  3 16  2  0     0  0
  4 17  2  0     0  0
  5  6  1  0     0  0
  5 10  1  0     0  0
  6 11  2  0     0  0
  7 12  1  0     0  0
  7 15  1  0     0  0
  8 12  2  0     0  0
  9 13  2  0     0  0
 10 14  2  0     0  0
 10 15  1  0     0  0
 11 14  1  0     0  0
 11 16  1  0     0  0
 12 13  1  0     0  0
 13 17  1  0     0  0
 16 18  1  0     0  0
 17 34  1  0     0  0
 18 19  1  0     0  0
 19 20  1  0     0  0
 20 21  1  0     0  0
 21 22  1  0     0  0
 22 23  1  0     0  0
 23 24  1  0     0  0
 24 25  1  0     0  0
 25 26  1  0     0  0
 26 27  1  0     0  0
 27 28  1  0     0  0
 28 29  1  0     0  0
 29 30  1  0     0  0
 30 31  1  0     0  0
 31 32  1  0     0  0
 32 33  1  0     0  0
 33 35  1  0     0  0
M  END
> <standard_type>
pIC50

> <# Confs.>
25

> <canonical_smiles>
CC(C1=CSC=C1NC(C2=CC(C(CCCCCCCCCCCCCCCCC)=O)=NN2)=O)=O

> <standard_relation>
=

> <predicted_activity_value>
6.468521082957745

> <actual_activity_value>
6.920818753952375

> <Compound>
21

> <publication_ID>
Ma_2018

> <standard_units>
nM

> hash
15664984206525086107

$$$$
21_
XXILIB    08252103423D 0   0.00000     0.00000

 35 36  0     1  0            999 V2000
  -12.4961   -0.2436    9.5435 S   0  0  0  0  0  2           0  0  0
  -10.5565    0.0923    5.7190 O   0  0  0  0  0  2           0  0  0
   -3.9873    0.0000    5.1831 O   0  0  0  0  0  2           0  0  0
   -7.8477    0.9828   10.3563 O   0  0  0  0  0  2           0  0  0
   -8.2659    0.0297    3.9919 N   0  0  0  0  0  3           0  0  0
   -7.0585    0.0121    3.4089 N   0  0  0  0  0  3           0  0  0
   -9.1650    0.0871    7.5593 N   0  0  0  0  0  3           0  0  0
  -11.3693   -0.4717    8.2845 C   0  0  0  0  0  4           0  0  0
  -11.3488    0.6094   10.4731 C   0  0  0  0  0  4           0  0  0
   -8.2392    0.0458    5.3617 C   0  0  0  0  0  4           0  0  0
   -6.2053    0.0120    4.4401 C   0  0  0  0  0  4           0  0  0
  -10.1431    0.1144    8.5418 C   0  0  0  0  0  4           0  0  0
  -10.1096    0.7052    9.8604 C   0  0  0  0  0  4           0  0  0
   -6.8954    0.0279    5.6787 C   0  0  0  0  0  4           0  0  0
   -9.4221    0.0774    6.1963 C   0  0  0  0  0  4           0  0  0
   -4.7648   -0.0000    4.2289 C   0  0  0  0  0  4           0  0  0
   -9.0093    1.3255   10.5614 C   0  0  0  0  0  4           0  0  0
   -4.2253   -0.0000    2.8150 C   0  0  0  0  0  4           0  0  0
   -2.7039   -0.0000    2.8150 C   0  0  0  0  0  4           0  0  0
   -2.1148   -0.0000    1.4075 C   0  0  0  0  0  4           0  0  0
   -0.5891    0.0000    1.4075 C   0  0  0  0  0  4           0  0  0
    0.0000   -0.0000    0.0000 C   0  0  0  0  0  4           0  0  0
    1.5257    0.0000   -0.0000 C   0  0  0  0  0  4           0  0  0
    2.1148    0.0000   -1.4075 C   0  0  0  0  0  4           0  0  0
    3.6405   -0.0000   -1.4075 C   0  0  0  0  0  4           0  0  0
    4.2296    0.0000   -2.8150 C   0  0  0  0  0  4           0  0  0
    5.7554   -0.0000   -2.8150 C   0  0  0  0  0  4           0  0  0
    6.3444    0.0000   -4.2225 C   0  0  0  0  0  4           0  0  0
    7.8702   -0.0000   -4.2225 C   0  0  0  0  0  4           0  0  0
    8.4593    0.0000   -5.6300 C   0  0  0  0  0  4           0  0  0
    9.9850   -0.0000   -5.6300 C   0  0  0  0  0  4           0  0  0
   10.5741   -1.2189   -4.9262 C   0  0  0  0  0  4           0  0  0
   12.0999   -1.2189   -4.9262 C   0  0  0  0  0  4           0  0  0
   -9.3436    2.3796   11.5846 C   0  0  0  0  0  4           0  0  0
   12.6902   -2.4336   -4.2249 C   0  0  0  0  0  4           0  0  0
  1  8  1  0     0  0
  1  9  1  0     0  0
  2 15  2  0     0  0
  3 16  2  0     0  0
  4 17  2  0     0  0
  5  6  1  0     0  0
  5 10  1  0     0  0
  6 11  2  0     0  0
  7 12  1  0     0  0
  7 15  1  0     0  0
  8 12  2  0     0  0
  9 13  2  0     0  0
 10 14  2  0     0  0
 10 15  1  0     0  0
 11 14  1  0     0  0
 11 16  1  0     0  0
 12 13  1  0     0  0
 13 17  1  0     0  0
 16 18  1  0     0  0
 17 34  1  0     0  0
 18 19  1  0     0  0
 19 20  1  0     0  0
 20 21  1  0     0  0
 21 22  1  0     0  0
 22 23  1  0     0  0
 23 24  1  0     0  0
 24 25  1  0     0  0
 25 26  1  0     0  0
 26 27  1  0     0  0
 27 28  1  0     0  0
 28 29  1  0     0  0
 29 30  1  0     0  0
 30 31  1  0     0  0
 31 32  1  0     0  0
 32 33  1  0     0  0
 33 35  1  0     0  0
M  END
> <standard_type>
pIC50

> <# Confs.>
25

> <canonical_smiles>
CC(C1=CSC=C1NC(C2=CC(C(CCCCCCCCCCCCCCCCC)=O)=NN2)=O)=O

> <standard_relation>
=

> <predicted_activity_value>
6.468521082957745

> <actual_activity_value>
6.920818753952375

> <Compound>
21

> <publication_ID>
Ma_2018

> <standard_units>
nM

> hash
15664984206525086107

$$$$
21_
XXILIB    08252103423D 0   0.00000     0.00000

 35 36  0     1  0            999 V2000
   -6.7908    5.2017   11.7570 S   0  0  0  0  0  2           0  0  0
   -5.9110    4.8800    7.4916 O   0  0  0  0  0  2           0  0  0
   -4.9838   -1.0666    4.8029 O   0  0  0  0  0  2           0  0  0
   -8.8630    1.1990   11.7783 O   0  0  0  0  0  2           0  0  0
   -5.1031    3.3555    5.1987 N   0  0  0  0  0  3           0  0  0
   -4.7719    2.4353    4.2814 N   0  0  0  0  0  3           0  0  0
   -6.3519    2.9239    8.6327 N   0  0  0  0  0  3           0  0  0
   -6.2589    4.7095   10.2138 C   0  0  0  0  0  4           0  0  0
   -7.7576    3.8059   11.9157 C   0  0  0  0  0  4           0  0  0
   -5.5409    2.8423    6.3913 C   0  0  0  0  0  4           0  0  0
   -5.0070    1.2705    4.8973 C   0  0  0  0  0  4           0  0  0
   -6.7779    3.4874    9.8258 C   0  0  0  0  0  4           0  0  0
   -7.7100    2.9776   10.8057 C   0  0  0  0  0  4           0  0  0
   -5.4924    1.4738    6.2140 C   0  0  0  0  0  4           0  0  0
   -5.9397    3.6500    7.5251 C   0  0  0  0  0  4           0  0  0
   -4.7648    0.0000    4.2289 C   0  0  0  0  0  4           0  0  0
   -8.5425    1.7981   10.7550 C   0  0  0  0  0  4           0  0  0
   -4.2253   -0.0000    2.8150 C   0  0  0  0  0  4           0  0  0
   -2.7039   -0.0000    2.8150 C   0  0  0  0  0  4           0  0  0
   -2.1148   -0.0000    1.4075 C   0  0  0  0  0  4           0  0  0
   -0.5891    0.0000    1.4075 C   0  0  0  0  0  4           0  0  0
    0.0000    0.0000   -0.0000 C   0  0  0  0  0  4           0  0  0
    1.5257    0.0000   -0.0000 C   0  0  0  0  0  4           0  0  0
    2.1148    0.0000   -1.4075 C   0  0  0  0  0  4           0  0  0
    3.6405   -0.0000   -1.4075 C   0  0  0  0  0  4           0  0  0
    4.2296    0.0000   -2.8150 C   0  0  0  0  0  4           0  0  0
    5.7554   -0.0000   -2.8150 C   0  0  0  0  0  4           0  0  0
    6.3444    0.0000   -4.2225 C   0  0  0  0  0  4           0  0  0
    7.8702   -0.0000   -4.2225 C   0  0  0  0  0  4           0  0  0
    8.4593    0.0000   -5.6300 C   0  0  0  0  0  4           0  0  0
    9.9850   -0.0000   -5.6300 C   0  0  0  0  0  4           0  0  0
   10.5741    0.0000   -7.0375 C   0  0  0  0  0  4           0  0  0
   12.0999   -0.0000   -7.0375 C   0  0  0  0  0  4           0  0  0
   -8.9682    1.3063    9.3961 C   0  0  0  0  0  4           0  0  0
   12.6902    0.0000   -8.4401 C   0  0  0  0  0  4           0  0  0
  1  8  1  0     0  0
  1  9  1  0     0  0
  2 15  2  0     0  0
  3 16  2  0     0  0
  4 17  2  0     0  0
  5  6  1  0     0  0
  5 10  1  0     0  0
  6 11  2  0     0  0
  7 12  1  0     0  0
  7 15  1  0     0  0
  8 12  2  0     0  0
  9 13  2  0     0  0
 10 14  2  0     0  0
 10 15  1  0     0  0
 11 14  1  0     0  0
 11 16  1  0     0  0
 12 13  1  0     0  0
 13 17  1  0     0  0
 16 18  1  0     0  0
 17 34  1  0     0  0
 18 19  1  0     0  0
 19 20  1  0     0  0
 20 21  1  0     0  0
 21 22  1  0     0  0
 22 23  1  0     0  0
 23 24  1  0     0  0
 24 25  1  0     0  0
 25 26  1  0     0  0
 26 27  1  0     0  0
 27 28  1  0     0  0
 28 29  1  0     0  0
 29 30  1  0     0  0
 30 31  1  0     0  0
 31 32  1  0     0  0
 32 33  1  0     0  0
 33 35  1  0     0  0
M  END
> <standard_type>
pIC50

> <# Confs.>
25

> <canonical_smiles>
CC(C1=CSC=C1NC(C2=CC(C(CCCCCCCCCCCCCCCCC)=O)=NN2)=O)=O

> <standard_relation>
=

> <predicted_activity_value>
6.468521082957745

> <actual_activity_value>
6.920818753952375

> <Compound>
21

> <publication_ID>
Ma_2018

> <standard_units>
nM

> hash
15664984206525086107

$$$$
21_
XXILIB    08252103423D 0   0.00000     0.00000

 35 36  0     1  0            999 V2000
  -12.4961   -0.2436    9.5435 S   0  0  0  0  0  2           0  0  0
  -10.5565    0.0923    5.7190 O   0  0  0  0  0  2           0  0  0
   -3.9873    0.0000    5.1831 O   0  0  0  0  0  2           0  0  0
   -7.8477    0.9828   10.3563 O   0  0  0  0  0  2           0  0  0
   -8.2659    0.0297    3.9919 N   0  0  0  0  0  3           0  0  0
   -7.0585    0.0121    3.4089 N   0  0  0  0  0  3           0  0  0
   -9.1650    0.0871    7.5593 N   0  0  0  0  0  3           0  0  0
  -11.3693   -0.4717    8.2845 C   0  0  0  0  0  4           0  0  0
  -11.3488    0.6094   10.4731 C   0  0  0  0  0  4           0  0  0
   -8.2392    0.0458    5.3617 C   0  0  0  0  0  4           0  0  0
   -6.2053    0.0120    4.4401 C   0  0  0  0  0  4           0  0  0
  -10.1431    0.1144    8.5418 C   0  0  0  0  0  4           0  0  0
  -10.1096    0.7052    9.8604 C   0  0  0  0  0  4           0  0  0
   -6.8954    0.0279    5.6787 C   0  0  0  0  0  4           0  0  0
   -9.4221    0.0774    6.1963 C   0  0  0  0  0  4           0  0  0
   -4.7648   -0.0000    4.2289 C   0  0  0  0  0  4           0  0  0
   -9.0093    1.3255   10.5614 C   0  0  0  0  0  4           0  0  0
   -4.2253   -0.0000    2.8150 C   0  0  0  0  0  4           0  0  0
   -2.7039   -0.0000    2.8150 C   0  0  0  0  0  4           0  0  0
   -2.1148   -0.0000    1.4075 C   0  0  0  0  0  4           0  0  0
   -0.5891    0.0000    1.4075 C   0  0  0  0  0  4           0  0  0
    0.0000   -0.0000    0.0000 C   0  0  0  0  0  4           0  0  0
    1.5257    0.0000   -0.0000 C   0  0  0  0  0  4           0  0  0
    2.1148    0.0000   -1.4075 C   0  0  0  0  0  4           0  0  0
    3.6405   -0.0000   -1.4075 C   0  0  0  0  0  4           0  0  0
    4.2296    0.0000   -2.8150 C   0  0  0  0  0  4           0  0  0
    5.7554   -0.0000   -2.8150 C   0  0  0  0  0  4           0  0  0
    6.3444    0.0000   -4.2225 C   0  0  0  0  0  4           0  0  0
    7.8702   -0.0000   -4.2225 C   0  0  0  0  0  4           0  0  0
    8.4593    0.0000   -5.6300 C   0  0  0  0  0  4           0  0  0
    9.9850   -0.0000   -5.6300 C   0  0  0  0  0  4           0  0  0
   10.5741    0.0000   -7.0375 C   0  0  0  0  0  4           0  0  0
   10.1523   -1.2189   -7.8525 C   0  0  0  0  0  4           0  0  0
   -9.3436    2.3796   11.5846 C   0  0  0  0  0  4           0  0  0
   10.7384   -1.2216   -9.2569 C   0  0  0  0  0  4           0  0  0
  1  8  1  0     0  0
  1  9  1  0     0  0
  2 15  2  0     0  0
  3 16  2  0     0  0
  4 17  2  0     0  0
  5  6  1  0     0  0
  5 10  1  0     0  0
  6 11  2  0     0  0
  7 12  1  0     0  0
  7 15  1  0     0  0
  8 12  2  0     0  0
  9 13  2  0     0  0
 10 14  2  0     0  0
 10 15  1  0     0  0
 11 14  1  0     0  0
 11 16  1  0     0  0
 12 13  1  0     0  0
 13 17  1  0     0  0
 16 18  1  0     0  0
 17 34  1  0     0  0
 18 19  1  0     0  0
 19 20  1  0     0  0
 20 21  1  0     0  0
 21 22  1  0     0  0
 22 23  1  0     0  0
 23 24  1  0     0  0
 24 25  1  0     0  0
 25 26  1  0     0  0
 26 27  1  0     0  0
 27 28  1  0     0  0
 28 29  1  0     0  0
 29 30  1  0     0  0
 30 31  1  0     0  0
 31 32  1  0     0  0
 32 33  1  0     0  0
 33 35  1  0     0  0
M  END
> <standard_type>
pIC50

> <# Confs.>
25

> <canonical_smiles>
CC(C1=CSC=C1NC(C2=CC(C(CCCCCCCCCCCCCCCCC)=O)=NN2)=O)=O

> <standard_relation>
=

> <predicted_activity_value>
6.468521082957745

> <actual_activity_value>
6.920818753952375

> <Compound>
21

> <publication_ID>
Ma_2018

> <standard_units>
nM

> hash
15664984206525086107

$$$$
21_
XXILIB    08252103423D 0   0.00000     0.00000

 35 36  0     1  0            999 V2000
  -12.4961   -0.2436    9.5435 S   0  0  0  0  0  2           0  0  0
  -10.5565    0.0923    5.7190 O   0  0  0  0  0  2           0  0  0
   -3.9873    0.0000    5.1831 O   0  0  0  0  0  2           0  0  0
   -7.8477    0.9828   10.3563 O   0  0  0  0  0  2           0  0  0
   -8.2659    0.0297    3.9919 N   0  0  0  0  0  3           0  0  0
   -7.0585    0.0121    3.4089 N   0  0  0  0  0  3           0  0  0
   -9.1650    0.0871    7.5593 N   0  0  0  0  0  3           0  0  0
  -11.3693   -0.4717    8.2845 C   0  0  0  0  0  4           0  0  0
  -11.3488    0.6094   10.4731 C   0  0  0  0  0  4           0  0  0
   -8.2392    0.0458    5.3617 C   0  0  0  0  0  4           0  0  0
   -6.2053    0.0120    4.4401 C   0  0  0  0  0  4           0  0  0
  -10.1431    0.1144    8.5418 C   0  0  0  0  0  4           0  0  0
  -10.1096    0.7052    9.8604 C   0  0  0  0  0  4           0  0  0
   -6.8954    0.0279    5.6787 C   0  0  0  0  0  4           0  0  0
   -9.4221    0.0774    6.1963 C   0  0  0  0  0  4           0  0  0
   -4.7648   -0.0000    4.2289 C   0  0  0  0  0  4           0  0  0
   -9.0093    1.3255   10.5614 C   0  0  0  0  0  4           0  0  0
   -4.2253   -0.0000    2.8150 C   0  0  0  0  0  4           0  0  0
   -2.7039   -0.0000    2.8150 C   0  0  0  0  0  4           0  0  0
   -2.1148   -0.0000    1.4075 C   0  0  0  0  0  4           0  0  0
   -0.5891    0.0000    1.4075 C   0  0  0  0  0  4           0  0  0
    0.0000   -0.0000    0.0000 C   0  0  0  0  0  4           0  0  0
    1.5257    0.0000    0.0000 C   0  0  0  0  0  4           0  0  0
    2.1148    1.2189    0.7037 C   0  0  0  0  0  4           0  0  0
    3.6405    1.2189    0.7037 C   0  0  0  0  0  4           0  0  0
    4.2296    2.4378    1.4075 C   0  0  0  0  0  4           0  0  0
    5.7554    2.4378    1.4075 C   0  0  0  0  0  4           0  0  0
    6.3444    3.6568    2.1112 C   0  0  0  0  0  4           0  0  0
    7.8702    3.6568    2.1112 C   0  0  0  0  0  4           0  0  0
    8.4593    4.8757    2.8150 C   0  0  0  0  0  4           0  0  0
    9.9850    4.8757    2.8150 C   0  0  0  0  0  4           0  0  0
   10.5741    6.0946    3.5187 C   0  0  0  0  0  4           0  0  0
   12.0999    6.0946    3.5187 C   0  0  0  0  0  4           0  0  0
   -9.3436    2.3796   11.5846 C   0  0  0  0  0  4           0  0  0
   12.6902    7.3093    4.2200 C   0  0  0  0  0  4           0  0  0
  1  8  1  0     0  0
  1  9  1  0     0  0
  2 15  2  0     0  0
  3 16  2  0     0  0
  4 17  2  0     0  0
  5  6  1  0     0  0
  5 10  1  0     0  0
  6 11  2  0     0  0
  7 12  1  0     0  0
  7 15  1  0     0  0
  8 12  2  0     0  0
  9 13  2  0     0  0
 10 14  2  0     0  0
 10 15  1  0     0  0
 11 14  1  0     0  0
 11 16  1  0     0  0
 12 13  1  0     0  0
 13 17  1  0     0  0
 16 18  1  0     0  0
 17 34  1  0     0  0
 18 19  1  0     0  0
 19 20  1  0     0  0
 20 21  1  0     0  0
 21 22  1  0     0  0
 22 23  1  0     0  0
 23 24  1  0     0  0
 24 25  1  0     0  0
 25 26  1  0     0  0
 26 27  1  0     0  0
 27 28  1  0     0  0
 28 29  1  0     0  0
 29 30  1  0     0  0
 30 31  1  0     0  0
 31 32  1  0     0  0
 32 33  1  0     0  0
 33 35  1  0     0  0
M  END
> <standard_type>
pIC50

> <# Confs.>
25

> <canonical_smiles>
CC(C1=CSC=C1NC(C2=CC(C(CCCCCCCCCCCCCCCCC)=O)=NN2)=O)=O

> <standard_relation>
=

> <predicted_activity_value>
6.468521082957745

> <actual_activity_value>
6.920818753952375

> <Compound>
21

> <publication_ID>
Ma_2018

> <standard_units>
nM

> hash
15664984206525086107

$$$$
21_
XXILIB    08252103423D 0   0.00000     0.00000

 35 36  0     1  0            999 V2000
  -12.4961   -0.2436    9.5435 S   0  0  0  0  0  2           0  0  0
  -10.5565    0.0923    5.7190 O   0  0  0  0  0  2           0  0  0
   -3.9873    0.0000    5.1831 O   0  0  0  0  0  2           0  0  0
   -7.8477    0.9828   10.3563 O   0  0  0  0  0  2           0  0  0
   -8.2659    0.0297    3.9919 N   0  0  0  0  0  3           0  0  0
   -7.0585    0.0121    3.4089 N   0  0  0  0  0  3           0  0  0
   -9.1650    0.0871    7.5593 N   0  0  0  0  0  3           0  0  0
  -11.3693   -0.4717    8.2845 C   0  0  0  0  0  4           0  0  0
  -11.3488    0.6094   10.4731 C   0  0  0  0  0  4           0  0  0
   -8.2392    0.0458    5.3617 C   0  0  0  0  0  4           0  0  0
   -6.2053    0.0120    4.4401 C   0  0  0  0  0  4           0  0  0
  -10.1431    0.1144    8.5418 C   0  0  0  0  0  4           0  0  0
  -10.1096    0.7052    9.8604 C   0  0  0  0  0  4           0  0  0
   -6.8954    0.0279    5.6787 C   0  0  0  0  0  4           0  0  0
   -9.4221    0.0774    6.1963 C   0  0  0  0  0  4           0  0  0
   -4.7648   -0.0000    4.2289 C   0  0  0  0  0  4           0  0  0
   -9.0093    1.3255   10.5614 C   0  0  0  0  0  4           0  0  0
   -4.2253   -0.0000    2.8150 C   0  0  0  0  0  4           0  0  0
   -2.7039   -0.0000    2.8150 C   0  0  0  0  0  4           0  0  0
   -2.1148   -0.0000    1.4075 C   0  0  0  0  0  4           0  0  0
   -0.5891    0.0000    1.4075 C   0  0  0  0  0  4           0  0  0
    0.0000   -0.0000    0.0000 C   0  0  0  0  0  4           0  0  0
    1.5257    0.0000    0.0000 C   0  0  0  0  0  4           0  0  0
    2.1148    0.0000   -1.4075 C   0  0  0  0  0  4           0  0  0
    3.6405   -0.0000   -1.4075 C   0  0  0  0  0  4           0  0  0
    4.2296    1.2189   -0.7037 C   0  0  0  0  0  4           0  0  0
    5.7554    1.2189   -0.7037 C   0  0  0  0  0  4           0  0  0
    6.3444    2.4378    0.0000 C   0  0  0  0  0  4           0  0  0
    7.8702    2.4378    0.0000 C   0  0  0  0  0  4           0  0  0
    8.4593    3.6568    0.7037 C   0  0  0  0  0  4           0  0  0
    9.9850    3.6568    0.7037 C   0  0  0  0  0  4           0  0  0
   10.5741    4.8757    1.4075 C   0  0  0  0  0  4           0  0  0
   12.0999    4.8757    1.4075 C   0  0  0  0  0  4           0  0  0
   -9.3436    2.3796   11.5846 C   0  0  0  0  0  4           0  0  0
   12.6902    6.0904    2.1088 C   0  0  0  0  0  4           0  0  0
  1  8  1  0     0  0
  1  9  1  0     0  0
  2 15  2  0     0  0
  3 16  2  0     0  0
  4 17  2  0     0  0
  5  6  1  0     0  0
  5 10  1  0     0  0
  6 11  2  0     0  0
  7 12  1  0     0  0
  7 15  1  0     0  0
  8 12  2  0     0  0
  9 13  2  0     0  0
 10 14  2  0     0  0
 10 15  1  0     0  0
 11 14  1  0     0  0
 11 16  1  0     0  0
 12 13  1  0     0  0
 13 17  1  0     0  0
 16 18  1  0     0  0
 17 34  1  0     0  0
 18 19  1  0     0  0
 19 20  1  0     0  0
 20 21  1  0     0  0
 21 22  1  0     0  0
 22 23  1  0     0  0
 23 24  1  0     0  0
 24 25  1  0     0  0
 25 26  1  0     0  0
 26 27  1  0     0  0
 27 28  1  0     0  0
 28 29  1  0     0  0
 29 30  1  0     0  0
 30 31  1  0     0  0
 31 32  1  0     0  0
 32 33  1  0     0  0
 33 35  1  0     0  0
M  END
> <standard_type>
pIC50

> <# Confs.>
25

> <canonical_smiles>
CC(C1=CSC=C1NC(C2=CC(C(CCCCCCCCCCCCCCCCC)=O)=NN2)=O)=O

> <standard_relation>
=

> <predicted_activity_value>
6.468521082957745

> <actual_activity_value>
6.920818753952375

> <Compound>
21

> <publication_ID>
Ma_2018

> <standard_units>
nM

> hash
15664984206525086107

$$$$
21_
XXILIB    08252103423D 0   0.00000     0.00000

 35 36  0     1  0            999 V2000
  -12.4961   -0.2436    9.5435 S   0  0  0  0  0  2           0  0  0
  -10.5565    0.0923    5.7190 O   0  0  0  0  0  2           0  0  0
   -3.9873    0.0000    5.1831 O   0  0  0  0  0  2           0  0  0
   -7.8477    0.9828   10.3563 O   0  0  0  0  0  2           0  0  0
   -8.2659    0.0297    3.9919 N   0  0  0  0  0  3           0  0  0
   -7.0585    0.0121    3.4089 N   0  0  0  0  0  3           0  0  0
   -9.1650    0.0871    7.5593 N   0  0  0  0  0  3           0  0  0
  -11.3693   -0.4717    8.2845 C   0  0  0  0  0  4           0  0  0
  -11.3488    0.6094   10.4731 C   0  0  0  0  0  4           0  0  0
   -8.2392    0.0458    5.3617 C   0  0  0  0  0  4           0  0  0
   -6.2053    0.0120    4.4401 C   0  0  0  0  0  4           0  0  0
  -10.1431    0.1144    8.5418 C   0  0  0  0  0  4           0  0  0
  -10.1096    0.7052    9.8604 C   0  0  0  0  0  4           0  0  0
   -6.8954    0.0279    5.6787 C   0  0  0  0  0  4           0  0  0
   -9.4221    0.0774    6.1963 C   0  0  0  0  0  4           0  0  0
   -4.7648   -0.0000    4.2289 C   0  0  0  0  0  4           0  0  0
   -9.0093    1.3255   10.5614 C   0  0  0  0  0  4           0  0  0
   -4.2253   -0.0000    2.8150 C   0  0  0  0  0  4           0  0  0
   -2.7039   -0.0000    2.8150 C   0  0  0  0  0  4           0  0  0
   -2.1148   -0.0000    1.4075 C   0  0  0  0  0  4           0  0  0
   -0.5891    0.0000    1.4075 C   0  0  0  0  0  4           0  0  0
    0.0000   -0.0000    0.0000 C   0  0  0  0  0  4           0  0  0
    1.5257   -0.0000   -0.0000 C   0  0  0  0  0  4           0  0  0
    2.1148    0.0000   -1.4075 C   0  0  0  0  0  4           0  0  0
    1.6930   -1.2189   -2.2226 C   0  0  0  0  0  4           0  0  0
    2.2820   -1.2189   -3.6301 C   0  0  0  0  0  4           0  0  0
    1.8603   -2.4378   -4.4451 C   0  0  0  0  0  4           0  0  0
    2.4493   -2.4378   -5.8526 C   0  0  0  0  0  4           0  0  0
    2.0275   -3.6568   -6.6677 C   0  0  0  0  0  4           0  0  0
    2.6166   -3.6568   -8.0752 C   0  0  0  0  0  4           0  0  0
    2.1948   -4.8757   -8.8903 C   0  0  0  0  0  4           0  0  0
    2.7839   -4.8757  -10.2978 C   0  0  0  0  0  4           0  0  0
    2.3621   -6.0946  -11.1128 C   0  0  0  0  0  4           0  0  0
   -9.3436    2.3796   11.5846 C   0  0  0  0  0  4           0  0  0
    2.9482   -6.0973  -12.5172 C   0  0  0  0  0  4           0  0  0
  1  8  1  0     0  0
  1  9  1  0     0  0
  2 15  2  0     0  0
  3 16  2  0     0  0
  4 17  2  0     0  0
  5  6  1  0     0  0
  5 10  1  0     0  0
  6 11  2  0     0  0
  7 12  1  0     0  0
  7 15  1  0     0  0
  8 12  2  0     0  0
  9 13  2  0     0  0
 10 14  2  0     0  0
 10 15  1  0     0  0
 11 14  1  0     0  0
 11 16  1  0     0  0
 12 13  1  0     0  0
 13 17  1  0     0  0
 16 18  1  0     0  0
 17 34  1  0     0  0
 18 19  1  0     0  0
 19 20  1  0     0  0
 20 21  1  0     0  0
 21 22  1  0     0  0
 22 23  1  0     0  0
 23 24  1  0     0  0
 24 25  1  0     0  0
 25 26  1  0     0  0
 26 27  1  0     0  0
 27 28  1  0     0  0
 28 29  1  0     0  0
 29 30  1  0     0  0
 30 31  1  0     0  0
 31 32  1  0     0  0
 32 33  1  0     0  0
 33 35  1  0     0  0
M  END
> <standard_type>
pIC50

> <# Confs.>
25

> <canonical_smiles>
CC(C1=CSC=C1NC(C2=CC(C(CCCCCCCCCCCCCCCCC)=O)=NN2)=O)=O

> <standard_relation>
=

> <predicted_activity_value>
6.468521082957745

> <actual_activity_value>
6.920818753952375

> <Compound>
21

> <publication_ID>
Ma_2018

> <standard_units>
nM

> hash
15664984206525086107

$$$$
21_
XXILIB    08252103423D 0   0.00000     0.00000

 35 36  0     1  0            999 V2000
  -12.4961   -0.2436    9.5435 S   0  0  0  0  0  2           0  0  0
  -10.5565    0.0923    5.7190 O   0  0  0  0  0  2           0  0  0
   -3.9873    0.0000    5.1831 O   0  0  0  0  0  2           0  0  0
   -7.8477    0.9828   10.3563 O   0  0  0  0  0  2           0  0  0
   -8.2659    0.0297    3.9919 N   0  0  0  0  0  3           0  0  0
   -7.0585    0.0121    3.4089 N   0  0  0  0  0  3           0  0  0
   -9.1650    0.0871    7.5593 N   0  0  0  0  0  3           0  0  0
  -11.3693   -0.4717    8.2845 C   0  0  0  0  0  4           0  0  0
  -11.3488    0.6094   10.4731 C   0  0  0  0  0  4           0  0  0
   -8.2392    0.0458    5.3617 C   0  0  0  0  0  4           0  0  0
   -6.2053    0.0120    4.4401 C   0  0  0  0  0  4           0  0  0
  -10.1431    0.1144    8.5418 C   0  0  0  0  0  4           0  0  0
  -10.1096    0.7052    9.8604 C   0  0  0  0  0  4           0  0  0
   -6.8954    0.0279    5.6787 C   0  0  0  0  0  4           0  0  0
   -9.4221    0.0774    6.1963 C   0  0  0  0  0  4           0  0  0
   -4.7648   -0.0000    4.2289 C   0  0  0  0  0  4           0  0  0
   -9.0093    1.3255   10.5614 C   0  0  0  0  0  4           0  0  0
   -4.2253   -0.0000    2.8150 C   0  0  0  0  0  4           0  0  0
   -2.7039   -0.0000    2.8150 C   0  0  0  0  0  4           0  0  0
   -2.1148   -0.0000    1.4075 C   0  0  0  0  0  4           0  0  0
   -0.5891    0.0000    1.4075 C   0  0  0  0  0  4           0  0  0
    0.0000   -0.0000    0.0000 C   0  0  0  0  0  4           0  0  0
    1.5257   -0.0000    0.0000 C   0  0  0  0  0  4           0  0  0
    2.1148    0.0000   -1.4075 C   0  0  0  0  0  4           0  0  0
    3.6405    0.0000   -1.4075 C   0  0  0  0  0  4           0  0  0
    4.2296    0.0000   -2.8150 C   0  0  0  0  0  4           0  0  0
    3.8078   -1.2189   -3.6301 C   0  0  0  0  0  4           0  0  0
    4.3969   -1.2189   -5.0376 C   0  0  0  0  0  4           0  0  0
    3.9751   -2.4378   -5.8526 C   0  0  0  0  0  4           0  0  0
    4.5641   -2.4378   -7.2601 C   0  0  0  0  0  4           0  0  0
    4.1424   -3.6568   -8.0752 C   0  0  0  0  0  4           0  0  0
    4.7314   -3.6568   -9.4827 C   0  0  0  0  0  4           0  0  0
    4.3096   -4.8757  -10.2978 C   0  0  0  0  0  4           0  0  0
   -9.3436    2.3796   11.5846 C   0  0  0  0  0  4           0  0  0
    4.8957   -4.8784  -11.7021 C   0  0  0  0  0  4           0  0  0
  1  8  1  0     0  0
  1  9  1  0     0  0
  2 15  2  0     0  0
  3 16  2  0     0  0
  4 17  2  0     0  0
  5  6  1  0     0  0
  5 10  1  0     0  0
  6 11  2  0     0  0
  7 12  1  0     0  0
  7 15  1  0     0  0
  8 12  2  0     0  0
  9 13  2  0     0  0
 10 14  2  0     0  0
 10 15  1  0     0  0
 11 14  1  0     0  0
 11 16  1  0     0  0
 12 13  1  0     0  0
 13 17  1  0     0  0
 16 18  1  0     0  0
 17 34  1  0     0  0
 18 19  1  0     0  0
 19 20  1  0     0  0
 20 21  1  0     0  0
 21 22  1  0     0  0
 22 23  1  0     0  0
 23 24  1  0     0  0
 24 25  1  0     0  0
 25 26  1  0     0  0
 26 27  1  0     0  0
 27 28  1  0     0  0
 28 29  1  0     0  0
 29 30  1  0     0  0
 30 31  1  0     0  0
 31 32  1  0     0  0
 32 33  1  0     0  0
 33 35  1  0     0  0
M  END
> <standard_type>
pIC50

> <# Confs.>
25

> <canonical_smiles>
CC(C1=CSC=C1NC(C2=CC(C(CCCCCCCCCCCCCCCCC)=O)=NN2)=O)=O

> <standard_relation>
=

> <predicted_activity_value>
6.468521082957745

> <actual_activity_value>
6.920818753952375

> <Compound>
21

> <publication_ID>
Ma_2018

> <standard_units>
nM

> hash
15664984206525086107

$$$$
21_
XXILIB    08252103423D 0   0.00000     0.00000

 35 36  0     1  0            999 V2000
  -12.4961   -0.2436    9.5435 S   0  0  0  0  0  2           0  0  0
  -10.5565    0.0923    5.7190 O   0  0  0  0  0  2           0  0  0
   -3.9873    0.0000    5.1831 O   0  0  0  0  0  2           0  0  0
   -7.8477    0.9828   10.3563 O   0  0  0  0  0  2           0  0  0
   -8.2659    0.0297    3.9919 N   0  0  0  0  0  3           0  0  0
   -7.0585    0.0121    3.4089 N   0  0  0  0  0  3           0  0  0
   -9.1650    0.0871    7.5593 N   0  0  0  0  0  3           0  0  0
  -11.3693   -0.4717    8.2845 C   0  0  0  0  0  4           0  0  0
  -11.3488    0.6094   10.4731 C   0  0  0  0  0  4           0  0  0
   -8.2392    0.0458    5.3617 C   0  0  0  0  0  4           0  0  0
   -6.2053    0.0120    4.4401 C   0  0  0  0  0  4           0  0  0
  -10.1431    0.1144    8.5418 C   0  0  0  0  0  4           0  0  0
  -10.1096    0.7052    9.8604 C   0  0  0  0  0  4           0  0  0
   -6.8954    0.0279    5.6787 C   0  0  0  0  0  4           0  0  0
   -9.4221    0.0774    6.1963 C   0  0  0  0  0  4           0  0  0
   -4.7648   -0.0000    4.2289 C   0  0  0  0  0  4           0  0  0
   -9.0093    1.3255   10.5614 C   0  0  0  0  0  4           0  0  0
   -4.2253   -0.0000    2.8150 C   0  0  0  0  0  4           0  0  0
   -2.7039   -0.0000    2.8150 C   0  0  0  0  0  4           0  0  0
   -2.1148   -0.0000    1.4075 C   0  0  0  0  0  4           0  0  0
   -0.5891    0.0000    1.4075 C   0  0  0  0  0  4           0  0  0
    0.0000   -0.0000    0.0000 C   0  0  0  0  0  4           0  0  0
    1.5257    0.0000    0.0000 C   0  0  0  0  0  4           0  0  0
    2.1148    0.0000   -1.4075 C   0  0  0  0  0  4           0  0  0
    3.6405    0.0000   -1.4075 C   0  0  0  0  0  4           0  0  0
    4.2296   -0.0000   -2.8150 C   0  0  0  0  0  4           0  0  0
    5.7554   -0.0000   -2.8150 C   0  0  0  0  0  4           0  0  0
    6.3444    1.2189   -2.1112 C   0  0  0  0  0  4           0  0  0
    7.8702    1.2189   -2.1112 C   0  0  0  0  0  4           0  0  0
    8.4593    2.4378   -1.4075 C   0  0  0  0  0  4           0  0  0
    9.9850    2.4378   -1.4075 C   0  0  0  0  0  4           0  0  0
   10.5741    3.6568   -0.7037 C   0  0  0  0  0  4           0  0  0
   12.0999    3.6568   -0.7037 C   0  0  0  0  0  4           0  0  0
   -9.3436    2.3796   11.5846 C   0  0  0  0  0  4           0  0  0
   12.6902    4.8715   -0.0024 C   0  0  0  0  0  4           0  0  0
  1  8  1  0     0  0
  1  9  1  0     0  0
  2 15  2  0     0  0
  3 16  2  0     0  0
  4 17  2  0     0  0
  5  6  1  0     0  0
  5 10  1  0     0  0
  6 11  2  0     0  0
  7 12  1  0     0  0
  7 15  1  0     0  0
  8 12  2  0     0  0
  9 13  2  0     0  0
 10 14  2  0     0  0
 10 15  1  0     0  0
 11 14  1  0     0  0
 11 16  1  0     0  0
 12 13  1  0     0  0
 13 17  1  0     0  0
 16 18  1  0     0  0
 17 34  1  0     0  0
 18 19  1  0     0  0
 19 20  1  0     0  0
 20 21  1  0     0  0
 21 22  1  0     0  0
 22 23  1  0     0  0
 23 24  1  0     0  0
 24 25  1  0     0  0
 25 26  1  0     0  0
 26 27  1  0     0  0
 27 28  1  0     0  0
 28 29  1  0     0  0
 29 30  1  0     0  0
 30 31  1  0     0  0
 31 32  1  0     0  0
 32 33  1  0     0  0
 33 35  1  0     0  0
M  END
> <standard_type>
pIC50

> <# Confs.>
25

> <canonical_smiles>
CC(C1=CSC=C1NC(C2=CC(C(CCCCCCCCCCCCCCCCC)=O)=NN2)=O)=O

> <standard_relation>
=

> <predicted_activity_value>
6.468521082957745

> <actual_activity_value>
6.920818753952375

> <Compound>
21

> <publication_ID>
Ma_2018

> <standard_units>
nM

> hash
15664984206525086107

$$$$
21_
XXILIB    08252103423D 0   0.00000     0.00000

 35 36  0     1  0            999 V2000
  -12.4961   -0.2436    9.5435 S   0  0  0  0  0  2           0  0  0
  -10.5565    0.0923    5.7190 O   0  0  0  0  0  2           0  0  0
   -3.9873    0.0000    5.1831 O   0  0  0  0  0  2           0  0  0
   -7.8477    0.9828   10.3563 O   0  0  0  0  0  2           0  0  0
   -8.2659    0.0297    3.9919 N   0  0  0  0  0  3           0  0  0
   -7.0585    0.0121    3.4089 N   0  0  0  0  0  3           0  0  0
   -9.1650    0.0871    7.5593 N   0  0  0  0  0  3           0  0  0
  -11.3693   -0.4717    8.2845 C   0  0  0  0  0  4           0  0  0
  -11.3488    0.6094   10.4731 C   0  0  0  0  0  4           0  0  0
   -8.2392    0.0458    5.3617 C   0  0  0  0  0  4           0  0  0
   -6.2053    0.0120    4.4401 C   0  0  0  0  0  4           0  0  0
  -10.1431    0.1144    8.5418 C   0  0  0  0  0  4           0  0  0
  -10.1096    0.7052    9.8604 C   0  0  0  0  0  4           0  0  0
   -6.8954    0.0279    5.6787 C   0  0  0  0  0  4           0  0  0
   -9.4221    0.0774    6.1963 C   0  0  0  0  0  4           0  0  0
   -4.7648   -0.0000    4.2289 C   0  0  0  0  0  4           0  0  0
   -9.0093    1.3255   10.5614 C   0  0  0  0  0  4           0  0  0
   -4.2253   -0.0000    2.8150 C   0  0  0  0  0  4           0  0  0
   -2.7039   -0.0000    2.8150 C   0  0  0  0  0  4           0  0  0
   -2.1148   -0.0000    1.4075 C   0  0  0  0  0  4           0  0  0
   -0.5891    0.0000    1.4075 C   0  0  0  0  0  4           0  0  0
    0.0000   -0.0000    0.0000 C   0  0  0  0  0  4           0  0  0
    1.5257   -0.0000   -0.0000 C   0  0  0  0  0  4           0  0  0
    2.1148    0.0000   -1.4075 C   0  0  0  0  0  4           0  0  0
    3.6405   -0.0000   -1.4075 C   0  0  0  0  0  4           0  0  0
    4.2296   -0.0000   -2.8150 C   0  0  0  0  0  4           0  0  0
    5.7554   -0.0000   -2.8150 C   0  0  0  0  0  4           0  0  0
    6.3444   -0.0000   -4.2225 C   0  0  0  0  0  4           0  0  0
    5.9227   -1.2189   -5.0376 C   0  0  0  0  0  4           0  0  0
    6.5117   -1.2189   -6.4450 C   0  0  0  0  0  4           0  0  0
    6.0899   -2.4378   -7.2601 C   0  0  0  0  0  4           0  0  0
    6.6790   -2.4378   -8.6676 C   0  0  0  0  0  4           0  0  0
    6.2572   -3.6568   -9.4827 C   0  0  0  0  0  4           0  0  0
   -9.3436    2.3796   11.5846 C   0  0  0  0  0  4           0  0  0
    6.8433   -3.6594  -10.8871 C   0  0  0  0  0  4           0  0  0
  1  8  1  0     0  0
  1  9  1  0     0  0
  2 15  2  0     0  0
  3 16  2  0     0  0
  4 17  2  0     0  0
  5  6  1  0     0  0
  5 10  1  0     0  0
  6 11  2  0     0  0
  7 12  1  0     0  0
  7 15  1  0     0  0
  8 12  2  0     0  0
  9 13  2  0     0  0
 10 14  2  0     0  0
 10 15  1  0     0  0
 11 14  1  0     0  0
 11 16  1  0     0  0
 12 13  1  0     0  0
 13 17  1  0     0  0
 16 18  1  0     0  0
 17 34  1  0     0  0
 18 19  1  0     0  0
 19 20  1  0     0  0
 20 21  1  0     0  0
 21 22  1  0     0  0
 22 23  1  0     0  0
 23 24  1  0     0  0
 24 25  1  0     0  0
 25 26  1  0     0  0
 26 27  1  0     0  0
 27 28  1  0     0  0
 28 29  1  0     0  0
 29 30  1  0     0  0
 30 31  1  0     0  0
 31 32  1  0     0  0
 32 33  1  0     0  0
 33 35  1  0     0  0
M  END
> <standard_type>
pIC50

> <# Confs.>
25

> <canonical_smiles>
CC(C1=CSC=C1NC(C2=CC(C(CCCCCCCCCCCCCCCCC)=O)=NN2)=O)=O

> <standard_relation>
=

> <predicted_activity_value>
6.468521082957745

> <actual_activity_value>
6.920818753952375

> <Compound>
21

> <publication_ID>
Ma_2018

> <standard_units>
nM

> hash
15664984206525086107

$$$$
21_
XXILIB    08252103423D 0   0.00000     0.00000

 35 36  0     1  0            999 V2000
  -12.4961   -0.2436    9.5435 S   0  0  0  0  0  2           0  0  0
  -10.5565    0.0923    5.7190 O   0  0  0  0  0  2           0  0  0
   -3.9873    0.0000    5.1831 O   0  0  0  0  0  2           0  0  0
   -7.8477    0.9828   10.3563 O   0  0  0  0  0  2           0  0  0
   -8.2659    0.0297    3.9919 N   0  0  0  0  0  3           0  0  0
   -7.0585    0.0121    3.4089 N   0  0  0  0  0  3           0  0  0
   -9.1650    0.0871    7.5593 N   0  0  0  0  0  3           0  0  0
  -11.3693   -0.4717    8.2845 C   0  0  0  0  0  4           0  0  0
  -11.3488    0.6094   10.4731 C   0  0  0  0  0  4           0  0  0
   -8.2392    0.0458    5.3617 C   0  0  0  0  0  4           0  0  0
   -6.2053    0.0120    4.4401 C   0  0  0  0  0  4           0  0  0
  -10.1431    0.1144    8.5418 C   0  0  0  0  0  4           0  0  0
  -10.1096    0.7052    9.8604 C   0  0  0  0  0  4           0  0  0
   -6.8954    0.0279    5.6787 C   0  0  0  0  0  4           0  0  0
   -9.4221    0.0774    6.1963 C   0  0  0  0  0  4           0  0  0
   -4.7648   -0.0000    4.2289 C   0  0  0  0  0  4           0  0  0
   -9.0093    1.3255   10.5614 C   0  0  0  0  0  4           0  0  0
   -4.2253   -0.0000    2.8150 C   0  0  0  0  0  4           0  0  0
   -2.7039   -0.0000    2.8150 C   0  0  0  0  0  4           0  0  0
   -2.1148   -0.0000    1.4075 C   0  0  0  0  0  4           0  0  0
   -0.5891    0.0000    1.4075 C   0  0  0  0  0  4           0  0  0
    0.0000   -0.0000    0.0000 C   0  0  0  0  0  4           0  0  0
    1.5257    0.0000   -0.0000 C   0  0  0  0  0  4           0  0  0
    2.1148    0.0000   -1.4075 C   0  0  0  0  0  4           0  0  0
    3.6405   -0.0000   -1.4075 C   0  0  0  0  0  4           0  0  0
    4.2296    0.0000   -2.8150 C   0  0  0  0  0  4           0  0  0
    5.7554   -0.0000   -2.8150 C   0  0  0  0  0  4           0  0  0
    6.3444    0.0000   -4.2225 C   0  0  0  0  0  4           0  0  0
    7.8702   -0.0000   -4.2225 C   0  0  0  0  0  4           0  0  0
    8.4593    1.2189   -3.5187 C   0  0  0  0  0  4           0  0  0
    9.9850    1.2189   -3.5187 C   0  0  0  0  0  4           0  0  0
   10.5741    2.4378   -2.8150 C   0  0  0  0  0  4           0  0  0
   12.0999    2.4378   -2.8150 C   0  0  0  0  0  4           0  0  0
   -9.3436    2.3796   11.5846 C   0  0  0  0  0  4           0  0  0
   12.6902    3.6525   -2.1137 C   0  0  0  0  0  4           0  0  0
  1  8  1  0     0  0
  1  9  1  0     0  0
  2 15  2  0     0  0
  3 16  2  0     0  0
  4 17  2  0     0  0
  5  6  1  0     0  0
  5 10  1  0     0  0
  6 11  2  0     0  0
  7 12  1  0     0  0
  7 15  1  0     0  0
  8 12  2  0     0  0
  9 13  2  0     0  0
 10 14  2  0     0  0
 10 15  1  0     0  0
 11 14  1  0     0  0
 11 16  1  0     0  0
 12 13  1  0     0  0
 13 17  1  0     0  0
 16 18  1  0     0  0
 17 34  1  0     0  0
 18 19  1  0     0  0
 19 20  1  0     0  0
 20 21  1  0     0  0
 21 22  1  0     0  0
 22 23  1  0     0  0
 23 24  1  0     0  0
 24 25  1  0     0  0
 25 26  1  0     0  0
 26 27  1  0     0  0
 27 28  1  0     0  0
 28 29  1  0     0  0
 29 30  1  0     0  0
 30 31  1  0     0  0
 31 32  1  0     0  0
 32 33  1  0     0  0
 33 35  1  0     0  0
M  END
> <standard_type>
pIC50

> <# Confs.>
25

> <canonical_smiles>
CC(C1=CSC=C1NC(C2=CC(C(CCCCCCCCCCCCCCCCC)=O)=NN2)=O)=O

> <standard_relation>
=

> <predicted_activity_value>
6.468521082957745

> <actual_activity_value>
6.920818753952375

> <Compound>
21

> <publication_ID>
Ma_2018

> <standard_units>
nM

> hash
15664984206525086107

$$$$
21_
XXILIB    08252103423D 0   0.00000     0.00000

 35 36  0     1  0            999 V2000
  -12.4961   -0.2436    9.5435 S   0  0  0  0  0  2           0  0  0
  -10.5565    0.0923    5.7190 O   0  0  0  0  0  2           0  0  0
   -3.9873    0.0000    5.1831 O   0  0  0  0  0  2           0  0  0
   -7.8477    0.9828   10.3563 O   0  0  0  0  0  2           0  0  0
   -8.2659    0.0297    3.9919 N   0  0  0  0  0  3           0  0  0
   -7.0585    0.0121    3.4089 N   0  0  0  0  0  3           0  0  0
   -9.1650    0.0871    7.5593 N   0  0  0  0  0  3           0  0  0
  -11.3693   -0.4717    8.2845 C   0  0  0  0  0  4           0  0  0
  -11.3488    0.6094   10.4731 C   0  0  0  0  0  4           0  0  0
   -8.2392    0.0458    5.3617 C   0  0  0  0  0  4           0  0  0
   -6.2053    0.0120    4.4401 C   0  0  0  0  0  4           0  0  0
  -10.1431    0.1144    8.5418 C   0  0  0  0  0  4           0  0  0
  -10.1096    0.7052    9.8604 C   0  0  0  0  0  4           0  0  0
   -6.8954    0.0279    5.6787 C   0  0  0  0  0  4           0  0  0
   -9.4221    0.0774    6.1963 C   0  0  0  0  0  4           0  0  0
   -4.7648   -0.0000    4.2289 C   0  0  0  0  0  4           0  0  0
   -9.0093    1.3255   10.5614 C   0  0  0  0  0  4           0  0  0
   -4.2253   -0.0000    2.8150 C   0  0  0  0  0  4           0  0  0
   -2.7039   -0.0000    2.8150 C   0  0  0  0  0  4           0  0  0
   -2.1148   -0.0000    1.4075 C   0  0  0  0  0  4           0  0  0
   -0.5891    0.0000    1.4075 C   0  0  0  0  0  4           0  0  0
    0.0000   -0.0000    0.0000 C   0  0  0  0  0  4           0  0  0
    1.5257    0.0000   -0.0000 C   0  0  0  0  0  4           0  0  0
    2.1148    0.0000   -1.4075 C   0  0  0  0  0  4           0  0  0
    3.6405   -0.0000   -1.4075 C   0  0  0  0  0  4           0  0  0
    4.2296    0.0000   -2.8150 C   0  0  0  0  0  4           0  0  0
    5.7554   -0.0000   -2.8150 C   0  0  0  0  0  4           0  0  0
    6.3444    0.0000   -4.2225 C   0  0  0  0  0  4           0  0  0
    7.8702   -0.0000   -4.2225 C   0  0  0  0  0  4           0  0  0
    8.4593    0.0000   -5.6300 C   0  0  0  0  0  4           0  0  0
    8.0375   -1.2189   -6.4450 C   0  0  0  0  0  4           0  0  0
    8.6265   -1.2189   -7.8525 C   0  0  0  0  0  4           0  0  0
    8.2048   -2.4378   -8.6676 C   0  0  0  0  0  4           0  0  0
   -9.3436    2.3796   11.5846 C   0  0  0  0  0  4           0  0  0
    8.7908   -2.4405  -10.0720 C   0  0  0  0  0  4           0  0  0
  1  8  1  0     0  0
  1  9  1  0     0  0
  2 15  2  0     0  0
  3 16  2  0     0  0
  4 17  2  0     0  0
  5  6  1  0     0  0
  5 10  1  0     0  0
  6 11  2  0     0  0
  7 12  1  0     0  0
  7 15  1  0     0  0
  8 12  2  0     0  0
  9 13  2  0     0  0
 10 14  2  0     0  0
 10 15  1  0     0  0
 11 14  1  0     0  0
 11 16  1  0     0  0
 12 13  1  0     0  0
 13 17  1  0     0  0
 16 18  1  0     0  0
 17 34  1  0     0  0
 18 19  1  0     0  0
 19 20  1  0     0  0
 20 21  1  0     0  0
 21 22  1  0     0  0
 22 23  1  0     0  0
 23 24  1  0     0  0
 24 25  1  0     0  0
 25 26  1  0     0  0
 26 27  1  0     0  0
 27 28  1  0     0  0
 28 29  1  0     0  0
 29 30  1  0     0  0
 30 31  1  0     0  0
 31 32  1  0     0  0
 32 33  1  0     0  0
 33 35  1  0     0  0
M  END
> <standard_type>
pIC50

> <# Confs.>
25

> <canonical_smiles>
CC(C1=CSC=C1NC(C2=CC(C(CCCCCCCCCCCCCCCCC)=O)=NN2)=O)=O

> <standard_relation>
=

> <predicted_activity_value>
6.468521082957745

> <actual_activity_value>
6.920818753952375

> <Compound>
21

> <publication_ID>
Ma_2018

> <standard_units>
nM

> hash
15664984206525086107

$$$$
21_
XXILIB    08252103423D 0   0.00000     0.00000

 35 36  0     1  0            999 V2000
  -12.4961   -0.2436    9.5435 S   0  0  0  0  0  2           0  0  0
  -10.5565    0.0923    5.7190 O   0  0  0  0  0  2           0  0  0
   -3.9873    0.0000    5.1831 O   0  0  0  0  0  2           0  0  0
   -7.8477    0.9828   10.3563 O   0  0  0  0  0  2           0  0  0
   -8.2659    0.0297    3.9919 N   0  0  0  0  0  3           0  0  0
   -7.0585    0.0121    3.4089 N   0  0  0  0  0  3           0  0  0
   -9.1650    0.0871    7.5593 N   0  0  0  0  0  3           0  0  0
  -11.3693   -0.4717    8.2845 C   0  0  0  0  0  4           0  0  0
  -11.3488    0.6094   10.4731 C   0  0  0  0  0  4           0  0  0
   -8.2392    0.0458    5.3617 C   0  0  0  0  0  4           0  0  0
   -6.2053    0.0120    4.4401 C   0  0  0  0  0  4           0  0  0
  -10.1431    0.1144    8.5418 C   0  0  0  0  0  4           0  0  0
  -10.1096    0.7052    9.8604 C   0  0  0  0  0  4           0  0  0
   -6.8954    0.0279    5.6787 C   0  0  0  0  0  4           0  0  0
   -9.4221    0.0774    6.1963 C   0  0  0  0  0  4           0  0  0
   -4.7648   -0.0000    4.2289 C   0  0  0  0  0  4           0  0  0
   -9.0093    1.3255   10.5614 C   0  0  0  0  0  4           0  0  0
   -4.2253   -0.0000    2.8150 C   0  0  0  0  0  4           0  0  0
   -2.7039   -0.0000    2.8150 C   0  0  0  0  0  4           0  0  0
   -2.1148   -0.0000    1.4075 C   0  0  0  0  0  4           0  0  0
   -0.5891    0.0000    1.4075 C   0  0  0  0  0  4           0  0  0
    0.0000   -0.0000    0.0000 C   0  0  0  0  0  4           0  0  0
    1.5257    0.0000   -0.0000 C   0  0  0  0  0  4           0  0  0
    2.1148    0.0000   -1.4075 C   0  0  0  0  0  4           0  0  0
    3.6405   -0.0000   -1.4075 C   0  0  0  0  0  4           0  0  0
    4.2296    0.0000   -2.8150 C   0  0  0  0  0  4           0  0  0
    5.7554   -0.0000   -2.8150 C   0  0  0  0  0  4           0  0  0
    6.3444    0.0000   -4.2225 C   0  0  0  0  0  4           0  0  0
    7.8702   -0.0000   -4.2225 C   0  0  0  0  0  4           0  0  0
    8.4593    0.0000   -5.6300 C   0  0  0  0  0  4           0  0  0
    9.9850   -0.0000   -5.6300 C   0  0  0  0  0  4           0  0  0
   10.5741    1.2189   -4.9262 C   0  0  0  0  0  4           0  0  0
   12.0999    1.2189   -4.9262 C   0  0  0  0  0  4           0  0  0
   -9.3436    2.3796   11.5846 C   0  0  0  0  0  4           0  0  0
   12.6902    2.4336   -4.2249 C   0  0  0  0  0  4           0  0  0
  1  8  1  0     0  0
  1  9  1  0     0  0
  2 15  2  0     0  0
  3 16  2  0     0  0
  4 17  2  0     0  0
  5  6  1  0     0  0
  5 10  1  0     0  0
  6 11  2  0     0  0
  7 12  1  0     0  0
  7 15  1  0     0  0
  8 12  2  0     0  0
  9 13  2  0     0  0
 10 14  2  0     0  0
 10 15  1  0     0  0
 11 14  1  0     0  0
 11 16  1  0     0  0
 12 13  1  0     0  0
 13 17  1  0     0  0
 16 18  1  0     0  0
 17 34  1  0     0  0
 18 19  1  0     0  0
 19 20  1  0     0  0
 20 21  1  0     0  0
 21 22  1  0     0  0
 22 23  1  0     0  0
 23 24  1  0     0  0
 24 25  1  0     0  0
 25 26  1  0     0  0
 26 27  1  0     0  0
 27 28  1  0     0  0
 28 29  1  0     0  0
 29 30  1  0     0  0
 30 31  1  0     0  0
 31 32  1  0     0  0
 32 33  1  0     0  0
 33 35  1  0     0  0
M  END
> <standard_type>
pIC50

> <# Confs.>
25

> <canonical_smiles>
CC(C1=CSC=C1NC(C2=CC(C(CCCCCCCCCCCCCCCCC)=O)=NN2)=O)=O

> <standard_relation>
=

> <predicted_activity_value>
6.468521082957745

> <actual_activity_value>
6.920818753952375

> <Compound>
21

> <publication_ID>
Ma_2018

> <standard_units>
nM

> hash
15664984206525086107

$$$$
21_
XXILIB    08252103423D 0   0.00000     0.00000

 35 36  0     1  0            999 V2000
   -8.2685   -5.2017   11.1932 S   0  0  0  0  0  2           0  0  0
   -6.0834   -4.8800    7.4258 O   0  0  0  0  0  2           0  0  0
   -4.9838    1.0666    4.8029 O   0  0  0  0  0  2           0  0  0
   -6.7372   -1.1990   12.5894 O   0  0  0  0  0  2           0  0  0
   -5.1585   -3.3555    5.1776 N   0  0  0  0  0  3           0  0  0
   -4.7945   -2.4353    4.2728 N   0  0  0  0  0  3           0  0  0
   -6.5146   -2.9239    8.5706 N   0  0  0  0  0  3           0  0  0
   -7.6372   -4.7095    9.6879 C   0  0  0  0  0  4           0  0  0
   -7.6531   -3.8059   11.9555 C   0  0  0  0  0  4           0  0  0
   -5.6264   -2.8423    6.3587 C   0  0  0  0  0  4           0  0  0
   -5.0294   -1.2705    4.8888 C   0  0  0  0  0  4           0  0  0
   -6.9917   -3.4874    9.7442 C   0  0  0  0  0  4           0  0  0
   -6.9493   -2.9776   11.0959 C   0  0  0  0  0  4           0  0  0
   -5.5445   -1.4738    6.1941 C   0  0  0  0  0  4           0  0  0
   -6.0843   -3.6500    7.4699 C   0  0  0  0  0  4           0  0  0
   -4.7648    0.0000    4.2289 C   0  0  0  0  0  4           0  0  0
   -6.2946   -1.7981   11.6128 C   0  0  0  0  0  4           0  0  0
   -4.2253   -0.0000    2.8150 C   0  0  0  0  0  4           0  0  0
   -2.7039   -0.0000    2.8150 C   0  0  0  0  0  4           0  0  0
   -2.1148   -0.0000    1.4075 C   0  0  0  0  0  4           0  0  0
   -0.5891    0.0000    1.4075 C   0  0  0  0  0  4           0  0  0
    0.0000    0.0000    0.0000 C   0  0  0  0  0  4           0  0  0
    1.5257    0.0000   -0.0000 C   0  0  0  0  0  4           0  0  0
    2.1148    0.0000   -1.4075 C   0  0  0  0  0  4           0  0  0
    3.6405   -0.0000   -1.4075 C   0  0  0  0  0  4           0  0  0
    4.2296    0.0000   -2.8150 C   0  0  0  0  0  4           0  0  0
    5.7554   -0.0000   -2.8150 C   0  0  0  0  0  4           0  0  0
    6.3444    0.0000   -4.2225 C   0  0  0  0  0  4           0  0  0
    7.8702   -0.0000   -4.2225 C   0  0  0  0  0  4           0  0  0
    8.4593    0.0000   -5.6300 C   0  0  0  0  0  4           0  0  0
    9.9850   -0.0000   -5.6300 C   0  0  0  0  0  4           0  0  0
   10.5741    0.0000   -7.0375 C   0  0  0  0  0  4           0  0  0
   12.0999   -0.0000   -7.0375 C   0  0  0  0  0  4           0  0  0
   -5.0719   -1.3063   10.8828 C   0  0  0  0  0  4           0  0  0
   12.6902    0.0000   -8.4401 C   0  0  0  0  0  4           0  0  0
  1  8  1  0     0  0
  1  9  1  0     0  0
  2 15  2  0     0  0
  3 16  2  0     0  0
  4 17  2  0     0  0
  5  6  1  0     0  0
  5 10  1  0     0  0
  6 11  2  0     0  0
  7 12  1  0     0  0
  7 15  1  0     0  0
  8 12  2  0     0  0
  9 13  2  0     0  0
 10 14  2  0     0  0
 10 15  1  0     0  0
 11 14  1  0     0  0
 11 16  1  0     0  0
 12 13  1  0     0  0
 13 17  1  0     0  0
 16 18  1  0     0  0
 17 34  1  0     0  0
 18 19  1  0     0  0
 19 20  1  0     0  0
 20 21  1  0     0  0
 21 22  1  0     0  0
 22 23  1  0     0  0
 23 24  1  0     0  0
 24 25  1  0     0  0
 25 26  1  0     0  0
 26 27  1  0     0  0
 27 28  1  0     0  0
 28 29  1  0     0  0
 29 30  1  0     0  0
 30 31  1  0     0  0
 31 32  1  0     0  0
 32 33  1  0     0  0
 33 35  1  0     0  0
M  END
> <standard_type>
pIC50

> <# Confs.>
25

> <canonical_smiles>
CC(C1=CSC=C1NC(C2=CC(C(CCCCCCCCCCCCCCCCC)=O)=NN2)=O)=O

> <standard_relation>
=

> <predicted_activity_value>
6.468521082957745

> <actual_activity_value>
6.920818753952375

> <Compound>
21

> <publication_ID>
Ma_2018

> <standard_units>
nM

> hash
15664984206525086107

$$$$
21_
XXILIB    08252103423D 0   0.00000     0.00000

 35 36  0     1  0            999 V2000
  -11.3690    3.2857   10.0101 S   0  0  0  0  0  2           0  0  0
   -9.9026    2.5199    5.9685 O   0  0  0  0  0  2           0  0  0
   -4.1208   -0.5333    5.1322 O   0  0  0  0  0  2           0  0  0
   -9.3017   -0.3858   11.6109 O   0  0  0  0  0  2           0  0  0
   -7.8320    1.7035    4.1575 N   0  0  0  0  0  3           0  0  0
   -6.7480    1.2281    3.5274 N   0  0  0  0  0  3           0  0  0
   -8.7583    1.5374    7.7145 N   0  0  0  0  0  3           0  0  0
  -10.4141    2.9935    8.6283 C   0  0  0  0  0  4           0  0  0
  -10.8109    1.8545   10.7507 C   0  0  0  0  0  4           0  0  0
   -7.8620    1.4608    5.5056 C   0  0  0  0  0  4           0  0  0
   -6.0406    0.6456    4.5029 C   0  0  0  0  0  4           0  0  0
   -9.6531    1.8428    8.7288 C   0  0  0  0  0  4           0  0  0
   -9.9290    1.1363    9.9590 C   0  0  0  0  0  4           0  0  0
   -6.6979    0.7611    5.7541 C   0  0  0  0  0  4           0  0  0
   -8.9291    1.8920    6.3844 C   0  0  0  0  0  4           0  0  0
   -4.7648   -0.0000    4.2289 C   0  0  0  0  0  4           0  0  0
   -9.4355   -0.1428   10.4143 C   0  0  0  0  0  4           0  0  0
   -4.2253   -0.0000    2.8150 C   0  0  0  0  0  4           0  0  0
   -2.7039   -0.0000    2.8150 C   0  0  0  0  0  4           0  0  0
   -2.1148   -0.0000    1.4075 C   0  0  0  0  0  4           0  0  0
   -0.5891   -0.0000    1.4075 C   0  0  0  0  0  4           0  0  0
    0.0000    0.0000   -0.0000 C   0  0  0  0  0  4           0  0  0
    1.5257    0.0000   -0.0000 C   0  0  0  0  0  4           0  0  0
    2.1148    0.0000   -1.4075 C   0  0  0  0  0  4           0  0  0
    3.6405   -0.0000   -1.4075 C   0  0  0  0  0  4           0  0  0
    4.2296    0.0000   -2.8150 C   0  0  0  0  0  4           0  0  0
    5.7554   -0.0000   -2.8150 C   0  0  0  0  0  4           0  0  0
    6.3444    0.0000   -4.2225 C   0  0  0  0  0  4           0  0  0
    7.8702   -0.0000   -4.2225 C   0  0  0  0  0  4           0  0  0
    8.4593    0.0000   -5.6300 C   0  0  0  0  0  4           0  0  0
    9.9850   -0.0000   -5.6300 C   0  0  0  0  0  4           0  0  0
   10.5741    0.0000   -7.0375 C   0  0  0  0  0  4           0  0  0
   12.0999   -0.0000   -7.0375 C   0  0  0  0  0  4           0  0  0
   -9.0511   -1.1526    9.3645 C   0  0  0  0  0  4           0  0  0
   12.6902    0.0000   -8.4401 C   0  0  0  0  0  4           0  0  0
  1  8  1  0     0  0
  1  9  1  0     0  0
  2 15  2  0     0  0
  3 16  2  0     0  0
  4 17  2  0     0  0
  5  6  1  0     0  0
  5 10  1  0     0  0
  6 11  2  0     0  0
  7 12  1  0     0  0
  7 15  1  0     0  0
  8 12  2  0     0  0
  9 13  2  0     0  0
 10 14  2  0     0  0
 10 15  1  0     0  0
 11 14  1  0     0  0
 11 16  1  0     0  0
 12 13  1  0     0  0
 13 17  1  0     0  0
 16 18  1  0     0  0
 17 34  1  0     0  0
 18 19  1  0     0  0
 19 20  1  0     0  0
 20 21  1  0     0  0
 21 22  1  0     0  0
 22 23  1  0     0  0
 23 24  1  0     0  0
 24 25  1  0     0  0
 25 26  1  0     0  0
 26 27  1  0     0  0
 27 28  1  0     0  0
 28 29  1  0     0  0
 29 30  1  0     0  0
 30 31  1  0     0  0
 31 32  1  0     0  0
 32 33  1  0     0  0
 33 35  1  0     0  0
M  END
> <standard_type>
pIC50

> <# Confs.>
25

> <canonical_smiles>
CC(C1=CSC=C1NC(C2=CC(C(CCCCCCCCCCCCCCCCC)=O)=NN2)=O)=O

> <standard_relation>
=

> <predicted_activity_value>
6.468521082957745

> <actual_activity_value>
6.920818753952375

> <Compound>
21

> <publication_ID>
Ma_2018

> <standard_units>
nM

> hash
15664984206525086107

$$$$
28_
XXILIB    08252103423D 0   0.00000     0.00000

 36 38  0     1  0            999 V2000
  -10.5377    0.0466    8.4731 O   0  0  0  0  0  2           0  0  0
  -10.1075    0.0347    3.7923 O   0  0  0  0  0  2           0  0  0
   -7.0238   -0.0000    3.0271 O   0  0  0  0  0  2           0  0  0
   -7.5026    0.0200    7.4882 N   0  0  0  0  0  3           0  0  0
   -6.5319    0.0108    6.5430 N   0  0  0  0  0  3           0  0  0
  -10.7745    0.0428    6.0921 N   0  0  2  0  0  3           0  0  0
   -8.7333    0.0276    6.9439 C   0  0  0  0  0  4           0  0  0
   -7.1973    0.0111    5.3655 C   0  0  0  0  0  4           0  0  0
  -12.1869    0.0566    5.9611 C   0  0  0  0  0  4           0  0  0
   -8.5794    0.0223    5.5927 C   0  0  0  0  0  4           0  0  0
  -14.1983    0.6772    4.7120 C   0  0  0  0  0  4           0  0  0
  -12.8014    0.6626    4.8510 C   0  0  0  0  0  4           0  0  0
  -13.0052   -0.5301    6.9388 C   0  0  0  0  0  4           0  0  0
  -14.9905    0.0969    5.7067 C   0  0  0  0  0  4           0  0  0
  -14.3957   -0.5074    6.8118 C   0  0  0  0  0  4           0  0  0
  -10.1029    0.0405    7.3329 C   0  0  0  0  0  4           0  0  0
   -9.8857    0.0323    4.9918 C   0  0  0  0  0  4           0  0  0
   -6.4504   -0.0000    4.1160 C   0  0  0  0  0  4           0  0  0
  -14.8361    1.3682    3.5437 C   0  0  0  0  0  4           0  0  0
   -4.9386    0.0000    4.1775 C   0  0  0  0  0  4           0  0  0
   -4.3108    0.0000    2.7850 C   0  0  0  0  0  4           0  0  0
   -2.7833    0.0000    2.7850 C   0  0  0  0  0  4           0  0  0
   -2.1554    0.0000    1.3925 C   0  0  0  0  0  4           0  0  0
   -0.6279    0.0000    1.3925 C   0  0  0  0  0  4           0  0  0
    0.0000   -0.0000    0.0000 C   0  0  0  0  0  4           0  0  0
    1.5275   -0.0000   -0.0000 C   0  0  0  0  0  4           0  0  0
    2.1554    0.0000   -1.3925 C   0  0  0  0  0  4           0  0  0
    3.6829    0.0000   -1.3925 C   0  0  0  0  0  4           0  0  0
    4.3108    0.0000   -2.7850 C   0  0  0  0  0  4           0  0  0
    5.8383    0.0000   -2.7850 C   0  0  0  0  0  4           0  0  0
    6.4661    0.0000   -4.1775 C   0  0  0  0  0  4           0  0  0
    7.9937    0.0000   -4.1775 C   0  0  0  0  0  4           0  0  0
    8.6215    0.0000   -5.5700 C   0  0  0  0  0  4           0  0  0
   10.1490    0.0000   -5.5700 C   0  0  0  0  0  4           0  0  0
   10.7769    0.0000   -6.9625 C   0  0  0  0  0  4           0  0  0
   12.2949    0.0000   -6.8879 C   0  0  0  0  0  4           0  0  0
  1 16  2  0     0  0
  2 17  2  0     0  0
  3 18  2  0     0  0
  4  5  1  0     0  0
  4  7  1  0     0  0
  5  8  2  0     0  0
  6  9  1  0     0  0
  6 16  1  0     0  0
  6 17  1  0     0  0
  7 10  2  0     0  0
  7 16  1  0     0  0
  8 10  1  0     0  0
  8 18  1  0     0  0
  9 12  2  0     0  0
  9 13  1  0     0  0
 10 17  1  0     0  0
 11 12  1  0     0  0
 11 14  2  0     0  0
 11 19  1  0     0  0
 13 15  2  0     0  0
 14 15  1  0     0  0
 18 20  1  0     0  0
 20 21  1  0     0  0
 21 22  1  0     0  0
 22 23  1  0     0  0
 23 24  1  0     0  0
 24 25  1  0     0  0
 25 26  1  0     0  0
 26 27  1  0     0  0
 27 28  1  0     0  0
 28 29  1  0     0  0
 29 30  1  0     0  0
 30 31  1  0     0  0
 31 32  1  0     0  0
 32 33  1  0     0  0
 33 34  1  0     0  0
 34 35  1  0     0  0
 35 36  1  0     0  0
M  END
> <standard_type>
pIC50

> <# Confs.>
25

> <canonical_smiles>
O=C1C2=C(C(C(CCCCCCCCCCCCCCCCC)=O)=NN2)C(N1C3=CC(C)=CC=C3)=O

> <standard_relation>
=

> <predicted_activity_value>
5.424812155072339

> <actual_activity_value>
5.585026652029182

> <Compound>
28

> <publication_ID>
nan

> <standard_units>
nM

> hash
11261695283669028271

$$$$
28_
XXILIB    08252103423D 0   0.00000     0.00000

 36 38  0     1  0            999 V2000
  -10.5377    0.0466    8.4731 O   0  0  0  0  0  2           0  0  0
  -10.1075    0.0347    3.7923 O   0  0  0  0  0  2           0  0  0
   -7.0238   -0.0000    3.0271 O   0  0  0  0  0  2           0  0  0
   -7.5026    0.0200    7.4882 N   0  0  0  0  0  3           0  0  0
   -6.5319    0.0108    6.5430 N   0  0  0  0  0  3           0  0  0
  -10.7745    0.0428    6.0921 N   0  0  2  0  0  3           0  0  0
   -8.7333    0.0276    6.9439 C   0  0  0  0  0  4           0  0  0
   -7.1973    0.0111    5.3655 C   0  0  0  0  0  4           0  0  0
  -12.1869    0.0566    5.9611 C   0  0  0  0  0  4           0  0  0
   -8.5794    0.0223    5.5927 C   0  0  0  0  0  4           0  0  0
  -14.4053   -0.5228    6.8179 C   0  0  0  0  0  4           0  0  0
  -13.0067   -0.5354    6.9382 C   0  0  0  0  0  4           0  0  0
  -12.7999    0.6572    4.8507 C   0  0  0  0  0  4           0  0  0
  -14.9897    0.0709    5.6955 C   0  0  0  0  0  4           0  0  0
  -14.1902    0.6616    4.7198 C   0  0  0  0  0  4           0  0  0
  -10.1029    0.0405    7.3329 C   0  0  0  0  0  4           0  0  0
   -9.8857    0.0323    4.9918 C   0  0  0  0  0  4           0  0  0
   -6.4504   -0.0000    4.1160 C   0  0  0  0  0  4           0  0  0
  -15.2603   -1.1993    7.8478 C   0  0  0  0  0  4           0  0  0
   -4.9386    0.0000    4.1775 C   0  0  0  0  0  4           0  0  0
   -4.3108    0.0000    2.7850 C   0  0  0  0  0  4           0  0  0
   -2.7833    0.0000    2.7850 C   0  0  0  0  0  4           0  0  0
   -2.1554    0.0000    1.3925 C   0  0  0  0  0  4           0  0  0
   -0.6279    0.0000    1.3925 C   0  0  0  0  0  4           0  0  0
    0.0000   -0.0000    0.0000 C   0  0  0  0  0  4           0  0  0
    1.5275   -0.0000   -0.0000 C   0  0  0  0  0  4           0  0  0
    2.1554    0.0000   -1.3925 C   0  0  0  0  0  4           0  0  0
    3.6829    0.0000   -1.3925 C   0  0  0  0  0  4           0  0  0
    4.3108    0.0000   -2.7850 C   0  0  0  0  0  4           0  0  0
    5.8383    0.0000   -2.7850 C   0  0  0  0  0  4           0  0  0
    6.4661    0.0000   -4.1775 C   0  0  0  0  0  4           0  0  0
    7.9937    0.0000   -4.1775 C   0  0  0  0  0  4           0  0  0
    8.6215    0.0000   -5.5700 C   0  0  0  0  0  4           0  0  0
   10.1490    0.0000   -5.5700 C   0  0  0  0  0  4           0  0  0
   10.7769    0.0000   -6.9625 C   0  0  0  0  0  4           0  0  0
   12.2949    0.0000   -6.8879 C   0  0  0  0  0  4           0  0  0
  1 16  2  0     0  0
  2 17  2  0     0  0
  3 18  2  0     0  0
  4  5  1  0     0  0
  4  7  1  0     0  0
  5  8  2  0     0  0
  6  9  1  0     0  0
  6 16  1  0     0  0
  6 17  1  0     0  0
  7 10  2  0     0  0
  7 16  1  0     0  0
  8 10  1  0     0  0
  8 18  1  0     0  0
  9 12  2  0     0  0
  9 13  1  0     0  0
 10 17  1  0     0  0
 11 12  1  0     0  0
 11 14  2  0     0  0
 11 19  1  0     0  0
 13 15  2  0     0  0
 14 15  1  0     0  0
 18 20  1  0     0  0
 20 21  1  0     0  0
 21 22  1  0     0  0
 22 23  1  0     0  0
 23 24  1  0     0  0
 24 25  1  0     0  0
 25 26  1  0     0  0
 26 27  1  0     0  0
 27 28  1  0     0  0
 28 29  1  0     0  0
 29 30  1  0     0  0
 30 31  1  0     0  0
 31 32  1  0     0  0
 32 33  1  0     0  0
 33 34  1  0     0  0
 34 35  1  0     0  0
 35 36  1  0     0  0
M  END
> <standard_type>
pIC50

> <# Confs.>
25

> <canonical_smiles>
O=C1C2=C(C(C(CCCCCCCCCCCCCCCCC)=O)=NN2)C(N1C3=CC(C)=CC=C3)=O

> <standard_relation>
=

> <predicted_activity_value>
5.424812155072339

> <actual_activity_value>
5.585026652029182

> <Compound>
28

> <publication_ID>
nan

> <standard_units>
nM

> hash
11261695283669028271

$$$$
28_
XXILIB    08252103423D 0   0.00000     0.00000

 36 38  0     1  0            999 V2000
  -10.5377    0.0466    8.4731 O   0  0  0  0  0  2           0  0  0
  -10.1075    0.0347    3.7923 O   0  0  0  0  0  2           0  0  0
   -7.0238   -0.0000    3.0271 O   0  0  0  0  0  2           0  0  0
   -7.5026    0.0200    7.4882 N   0  0  0  0  0  3           0  0  0
   -6.5319    0.0108    6.5430 N   0  0  0  0  0  3           0  0  0
  -10.7745    0.0428    6.0921 N   0  0  2  0  0  3           0  0  0
   -8.7333    0.0276    6.9439 C   0  0  0  0  0  4           0  0  0
   -7.1973    0.0111    5.3655 C   0  0  0  0  0  4           0  0  0
  -12.1869    0.0566    5.9611 C   0  0  0  0  0  4           0  0  0
   -8.5794    0.0223    5.5927 C   0  0  0  0  0  4           0  0  0
  -14.3927    0.6934    6.8097 C   0  0  0  0  0  4           0  0  0
  -12.9945    0.6721    6.9338 C   0  0  0  0  0  4           0  0  0
  -12.8125   -0.5481    4.8599 C   0  0  0  0  0  4           0  0  0
  -14.9910    0.0725    5.7095 C   0  0  0  0  0  4           0  0  0
  -14.2037   -0.5408    4.7379 C   0  0  0  0  0  4           0  0  0
  -10.1029    0.0405    7.3329 C   0  0  0  0  0  4           0  0  0
   -9.8857    0.0323    4.9918 C   0  0  0  0  0  4           0  0  0
   -6.4504   -0.0000    4.1160 C   0  0  0  0  0  4           0  0  0
  -15.2388    1.3153    7.8806 C   0  0  0  0  0  4           0  0  0
   -4.9386    0.0000    4.1775 C   0  0  0  0  0  4           0  0  0
   -4.3108    0.0000    2.7850 C   0  0  0  0  0  4           0  0  0
   -2.7833    0.0000    2.7850 C   0  0  0  0  0  4           0  0  0
   -2.1554    0.0000    1.3925 C   0  0  0  0  0  4           0  0  0
   -0.6279    0.0000    1.3925 C   0  0  0  0  0  4           0  0  0
    0.0000   -0.0000    0.0000 C   0  0  0  0  0  4           0  0  0
    1.5275   -0.0000   -0.0000 C   0  0  0  0  0  4           0  0  0
    2.1554    0.0000   -1.3925 C   0  0  0  0  0  4           0  0  0
    3.6829    0.0000   -1.3925 C   0  0  0  0  0  4           0  0  0
    4.3108    0.0000   -2.7850 C   0  0  0  0  0  4           0  0  0
    5.8383    0.0000   -2.7850 C   0  0  0  0  0  4           0  0  0
    6.4661    0.0000   -4.1775 C   0  0  0  0  0  4           0  0  0
    7.9937    0.0000   -4.1775 C   0  0  0  0  0  4           0  0  0
    8.6215    0.0000   -5.5700 C   0  0  0  0  0  4           0  0  0
   10.1490    0.0000   -5.5700 C   0  0  0  0  0  4           0  0  0
   10.7769    0.0000   -6.9625 C   0  0  0  0  0  4           0  0  0
   12.2949    0.0000   -6.8879 C   0  0  0  0  0  4           0  0  0
  1 16  2  0     0  0
  2 17  2  0     0  0
  3 18  2  0     0  0
  4  5  1  0     0  0
  4  7  1  0     0  0
  5  8  2  0     0  0
  6  9  1  0     0  0
  6 16  1  0     0  0
  6 17  1  0     0  0
  7 10  2  0     0  0
  7 16  1  0     0  0
  8 10  1  0     0  0
  8 18  1  0     0  0
  9 12  2  0     0  0
  9 13  1  0     0  0
 10 17  1  0     0  0
 11 12  1  0     0  0
 11 14  2  0     0  0
 11 19  1  0     0  0
 13 15  2  0     0  0
 14 15  1  0     0  0
 18 20  1  0     0  0
 20 21  1  0     0  0
 21 22  1  0     0  0
 22 23  1  0     0  0
 23 24  1  0     0  0
 24 25  1  0     0  0
 25 26  1  0     0  0
 26 27  1  0     0  0
 27 28  1  0     0  0
 28 29  1  0     0  0
 29 30  1  0     0  0
 30 31  1  0     0  0
 31 32  1  0     0  0
 32 33  1  0     0  0
 33 34  1  0     0  0
 34 35  1  0     0  0
 35 36  1  0     0  0
M  END
> <standard_type>
pIC50

> <# Confs.>
25

> <canonical_smiles>
O=C1C2=C(C(C(CCCCCCCCCCCCCCCCC)=O)=NN2)C(N1C3=CC(C)=CC=C3)=O

> <standard_relation>
=

> <predicted_activity_value>
5.424812155072339

> <actual_activity_value>
5.585026652029182

> <Compound>
28

> <publication_ID>
nan

> <standard_units>
nM

> hash
11261695283669028271

$$$$
28_
XXILIB    08252103423D 0   0.00000     0.00000

 36 38  0     1  0            999 V2000
  -10.5377   -4.9493   -0.0187 O   0  0  0  0  0  2           0  0  0
  -10.1075   -0.8896    2.3114 O   0  0  0  0  0  2           0  0  0
   -7.0238   -0.2097    2.6640 O   0  0  0  0  0  2           0  0  0
   -7.5026   -4.0831    0.4507 N   0  0  0  0  0  3           0  0  0
   -6.5319   -3.2599    0.9153 N   0  0  0  0  0  3           0  0  0
  -10.7745   -2.8854    1.1685 N   0  0  2  0  0  3           0  0  0
   -8.7333   -3.6155    0.7295 C   0  0  0  0  0  4           0  0  0
   -7.1973   -2.2403    1.5044 C   0  0  0  0  0  4           0  0  0
  -12.1869   -2.7789    1.2459 C   0  0  0  0  0  4           0  0  0
   -8.5794   -2.4427    1.4004 C   0  0  0  0  0  4           0  0  0
  -14.1983   -2.0074    2.4080 C   0  0  0  0  0  4           0  0  0
  -12.8014   -2.1205    2.3258 C   0  0  0  0  0  4           0  0  0
  -13.0052   -3.3322    0.2490 C   0  0  0  0  0  4           0  0  0
  -14.9905   -2.5787    1.4081 C   0  0  0  0  0  4           0  0  0
  -14.3957   -3.2336    0.3322 C   0  0  0  0  0  4           0  0  0
  -10.1029   -3.9589    0.5462 C   0  0  0  0  0  4           0  0  0
   -9.8857   -1.9273    1.7096 C   0  0  0  0  0  4           0  0  0
   -6.4504   -1.1526    2.1195 C   0  0  0  0  0  4           0  0  0
  -14.8361   -1.3411    3.5906 C   0  0  0  0  0  4           0  0  0
   -4.9386   -1.2059    2.0888 C   0  0  0  0  0  4           0  0  0
   -4.3108    0.0000    2.7850 C   0  0  0  0  0  4           0  0  0
   -2.7833    0.0000    2.7850 C   0  0  0  0  0  4           0  0  0
   -2.1554    0.0000    1.3925 C   0  0  0  0  0  4           0  0  0
   -0.6279    0.0000    1.3925 C   0  0  0  0  0  4           0  0  0
    0.0000    0.0000    0.0000 C   0  0  0  0  0  4           0  0  0
    1.5275   -0.0000   -0.0000 C   0  0  0  0  0  4           0  0  0
    2.1554    0.0000   -1.3925 C   0  0  0  0  0  4           0  0  0
    3.6829    0.0000   -1.3925 C   0  0  0  0  0  4           0  0  0
    4.3108    0.0000   -2.7850 C   0  0  0  0  0  4           0  0  0
    5.8383    0.0000   -2.7850 C   0  0  0  0  0  4           0  0  0
    6.4661    0.0000   -4.1775 C   0  0  0  0  0  4           0  0  0
    7.9937    0.0000   -4.1775 C   0  0  0  0  0  4           0  0  0
    8.6215    0.0000   -5.5700 C   0  0  0  0  0  4           0  0  0
   10.1490    0.0000   -5.5700 C   0  0  0  0  0  4           0  0  0
   10.7769    0.0000   -6.9625 C   0  0  0  0  0  4           0  0  0
   12.2949    0.0000   -6.8879 C   0  0  0  0  0  4           0  0  0
  1 16  2  0     0  0
  2 17  2  0     0  0
  3 18  2  0     0  0
  4  5  1  0     0  0
  4  7  1  0     0  0
  5  8  2  0     0  0
  6  9  1  0     0  0
  6 16  1  0     0  0
  6 17  1  0     0  0
  7 10  2  0     0  0
  7 16  1  0     0  0
  8 10  1  0     0  0
  8 18  1  0     0  0
  9 12  2  0     0  0
  9 13  1  0     0  0
 10 17  1  0     0  0
 11 12  1  0     0  0
 11 14  2  0     0  0
 11 19  1  0     0  0
 13 15  2  0     0  0
 14 15  1  0     0  0
 18 20  1  0     0  0
 20 21  1  0     0  0
 21 22  1  0     0  0
 22 23  1  0     0  0
 23 24  1  0     0  0
 24 25  1  0     0  0
 25 26  1  0     0  0
 26 27  1  0     0  0
 27 28  1  0     0  0
 28 29  1  0     0  0
 29 30  1  0     0  0
 30 31  1  0     0  0
 31 32  1  0     0  0
 32 33  1  0     0  0
 33 34  1  0     0  0
 34 35  1  0     0  0
 35 36  1  0     0  0
M  END
> <standard_type>
pIC50

> <# Confs.>
25

> <canonical_smiles>
O=C1C2=C(C(C(CCCCCCCCCCCCCCCCC)=O)=NN2)C(N1C3=CC(C)=CC=C3)=O

> <standard_relation>
=

> <predicted_activity_value>
5.424812155072339

> <actual_activity_value>
5.585026652029182

> <Compound>
28

> <publication_ID>
nan

> <standard_units>
nM

> hash
11261695283669028271

$$$$
28_
XXILIB    08252103423D 0   0.00000     0.00000

 36 38  0     1  0            999 V2000
  -10.5377   -4.9493   -0.0187 O   0  0  0  0  0  2           0  0  0
  -10.1075   -0.8896    2.3114 O   0  0  0  0  0  2           0  0  0
   -7.0238   -0.2097    2.6640 O   0  0  0  0  0  2           0  0  0
   -7.5026   -4.0831    0.4507 N   0  0  0  0  0  3           0  0  0
   -6.5319   -3.2599    0.9153 N   0  0  0  0  0  3           0  0  0
  -10.7745   -2.8854    1.1685 N   0  0  2  0  0  3           0  0  0
   -8.7333   -3.6155    0.7295 C   0  0  0  0  0  4           0  0  0
   -7.1973   -2.2403    1.5044 C   0  0  0  0  0  4           0  0  0
  -12.1869   -2.7789    1.2459 C   0  0  0  0  0  4           0  0  0
   -8.5794   -2.4427    1.4004 C   0  0  0  0  0  4           0  0  0
  -14.4053   -3.2312    0.3157 C   0  0  0  0  0  4           0  0  0
  -13.0067   -3.3290    0.2447 C   0  0  0  0  0  4           0  0  0
  -12.7999   -2.1175    2.3214 C   0  0  0  0  0  4           0  0  0
  -14.9897   -2.5561    1.3912 C   0  0  0  0  0  4           0  0  0
  -14.1902   -2.0064    2.3906 C   0  0  0  0  0  4           0  0  0
  -10.1029   -3.9589    0.5462 C   0  0  0  0  0  4           0  0  0
   -9.8857   -1.9273    1.7096 C   0  0  0  0  0  4           0  0  0
   -6.4504   -1.1526    2.1195 C   0  0  0  0  0  4           0  0  0
  -15.2603   -3.7849   -0.7850 C   0  0  0  0  0  4           0  0  0
   -4.9386   -1.2059    2.0888 C   0  0  0  0  0  4           0  0  0
   -4.3108    0.0000    2.7850 C   0  0  0  0  0  4           0  0  0
   -2.7833    0.0000    2.7850 C   0  0  0  0  0  4           0  0  0
   -2.1554    0.0000    1.3925 C   0  0  0  0  0  4           0  0  0
   -0.6279    0.0000    1.3925 C   0  0  0  0  0  4           0  0  0
    0.0000    0.0000    0.0000 C   0  0  0  0  0  4           0  0  0
    1.5275   -0.0000   -0.0000 C   0  0  0  0  0  4           0  0  0
    2.1554    0.0000   -1.3925 C   0  0  0  0  0  4           0  0  0
    3.6829    0.0000   -1.3925 C   0  0  0  0  0  4           0  0  0
    4.3108    0.0000   -2.7850 C   0  0  0  0  0  4           0  0  0
    5.8383    0.0000   -2.7850 C   0  0  0  0  0  4           0  0  0
    6.4661    0.0000   -4.1775 C   0  0  0  0  0  4           0  0  0
    7.9937    0.0000   -4.1775 C   0  0  0  0  0  4           0  0  0
    8.6215    0.0000   -5.5700 C   0  0  0  0  0  4           0  0  0
   10.1490    0.0000   -5.5700 C   0  0  0  0  0  4           0  0  0
   10.7769    0.0000   -6.9625 C   0  0  0  0  0  4           0  0  0
   12.2949    0.0000   -6.8879 C   0  0  0  0  0  4           0  0  0
  1 16  2  0     0  0
  2 17  2  0     0  0
  3 18  2  0     0  0
  4  5  1  0     0  0
  4  7  1  0     0  0
  5  8  2  0     0  0
  6  9  1  0     0  0
  6 16  1  0     0  0
  6 17  1  0     0  0
  7 10  2  0     0  0
  7 16  1  0     0  0
  8 10  1  0     0  0
  8 18  1  0     0  0
  9 12  2  0     0  0
  9 13  1  0     0  0
 10 17  1  0     0  0
 11 12  1  0     0  0
 11 14  2  0     0  0
 11 19  1  0     0  0
 13 15  2  0     0  0
 14 15  1  0     0  0
 18 20  1  0     0  0
 20 21  1  0     0  0
 21 22  1  0     0  0
 22 23  1  0     0  0
 23 24  1  0     0  0
 24 25  1  0     0  0
 25 26  1  0     0  0
 26 27  1  0     0  0
 27 28  1  0     0  0
 28 29  1  0     0  0
 29 30  1  0     0  0
 30 31  1  0     0  0
 31 32  1  0     0  0
 32 33  1  0     0  0
 33 34  1  0     0  0
 34 35  1  0     0  0
 35 36  1  0     0  0
M  END
> <standard_type>
pIC50

> <# Confs.>
25

> <canonical_smiles>
O=C1C2=C(C(C(CCCCCCCCCCCCCCCCC)=O)=NN2)C(N1C3=CC(C)=CC=C3)=O

> <standard_relation>
=

> <predicted_activity_value>
5.424812155072339

> <actual_activity_value>
5.585026652029182

> <Compound>
28

> <publication_ID>
nan

> <standard_units>
nM

> hash
11261695283669028271

$$$$
28_
XXILIB    08252103423D 0   0.00000     0.00000

 36 38  0     1  0            999 V2000
  -10.3558   -4.5197    4.0036 O   0  0  0  0  0  2           0  0  0
  -10.1160    0.1747    4.0014 O   0  0  0  0  0  2           0  0  0
   -7.0671    1.0646    4.0909 O   0  0  0  0  0  2           0  0  0
   -7.3646   -3.4122    4.0988 N   0  0  0  0  0  3           0  0  0
   -6.4336   -2.4284    4.1274 N   0  0  0  0  0  3           0  0  0
  -10.6888   -2.1504    3.9863 N   0  0  2  0  0  3           0  0  0
   -8.6157   -2.9184    4.0554 C   0  0  0  0  0  4           0  0  0
   -7.1458   -1.2789    4.0988 C   0  0  0  0  0  4           0  0  0
  -12.1047   -2.0770    3.9424 C   0  0  0  0  0  4           0  0  0
   -8.5167   -1.5621    4.0542 C   0  0  0  0  0  4           0  0  0
  -14.1888   -0.9107    4.4787 C   0  0  0  0  0  4           0  0  0
  -12.7880   -0.9928    4.5211 C   0  0  0  0  0  4           0  0  0
  -12.8580   -3.0871    3.3245 C   0  0  0  0  0  4           0  0  0
  -14.9156   -1.9368    3.8683 C   0  0  0  0  0  4           0  0  0
  -14.2523   -3.0168    3.2905 C   0  0  0  0  0  4           0  0  0
   -9.9677   -3.3629    4.0134 C   0  0  0  0  0  4           0  0  0
   -9.8457   -1.0149    4.0101 C   0  0  0  0  0  4           0  0  0
   -6.4504   -0.0000    4.1160 C   0  0  0  0  0  4           0  0  0
  -14.9011    0.2307    5.1413 C   0  0  0  0  0  4           0  0  0
   -4.9386    0.0000    4.1775 C   0  0  0  0  0  4           0  0  0
   -4.3108    0.0000    2.7850 C   0  0  0  0  0  4           0  0  0
   -2.7833    0.0000    2.7850 C   0  0  0  0  0  4           0  0  0
   -2.1554    0.0000    1.3925 C   0  0  0  0  0  4           0  0  0
   -0.6279    0.0000    1.3925 C   0  0  0  0  0  4           0  0  0
    0.0000   -0.0000    0.0000 C   0  0  0  0  0  4           0  0  0
    1.5275   -0.0000   -0.0000 C   0  0  0  0  0  4           0  0  0
    2.1554    0.0000   -1.3925 C   0  0  0  0  0  4           0  0  0
    3.6829    0.0000   -1.3925 C   0  0  0  0  0  4           0  0  0
    4.3108    0.0000   -2.7850 C   0  0  0  0  0  4           0  0  0
    5.8383    0.0000   -2.7850 C   0  0  0  0  0  4           0  0  0
    6.4661    0.0000   -4.1775 C   0  0  0  0  0  4           0  0  0
    7.9937    0.0000   -4.1775 C   0  0  0  0  0  4           0  0  0
    8.6215    0.0000   -5.5700 C   0  0  0  0  0  4           0  0  0
   10.1490    0.0000   -5.5700 C   0  0  0  0  0  4           0  0  0
   10.7769    0.0000   -6.9625 C   0  0  0  0  0  4           0  0  0
   12.2949    0.0000   -6.8879 C   0  0  0  0  0  4           0  0  0
  1 16  2  0     0  0
  2 17  2  0     0  0
  3 18  2  0     0  0
  4  5  1  0     0  0
  4  7  1  0     0  0
  5  8  2  0     0  0
  6  9  1  0     0  0
  6 16  1  0     0  0
  6 17  1  0     0  0
  7 10  2  0     0  0
  7 16  1  0     0  0
  8 10  1  0     0  0
  8 18  1  0     0  0
  9 12  2  0     0  0
  9 13  1  0     0  0
 10 17  1  0     0  0
 11 12  1  0     0  0
 11 14  2  0     0  0
 11 19  1  0     0  0
 13 15  2  0     0  0
 14 15  1  0     0  0
 18 20  1  0     0  0
 20 21  1  0     0  0
 21 22  1  0     0  0
 22 23  1  0     0  0
 23 24  1  0     0  0
 24 25  1  0     0  0
 25 26  1  0     0  0
 26 27  1  0     0  0
 27 28  1  0     0  0
 28 29  1  0     0  0
 29 30  1  0     0  0
 30 31  1  0     0  0
 31 32  1  0     0  0
 32 33  1  0     0  0
 33 34  1  0     0  0
 34 35  1  0     0  0
 35 36  1  0     0  0
M  END
> <standard_type>
pIC50

> <# Confs.>
25

> <canonical_smiles>
O=C1C2=C(C(C(CCCCCCCCCCCCCCCCC)=O)=NN2)C(N1C3=CC(C)=CC=C3)=O

> <standard_relation>
=

> <predicted_activity_value>
5.424812155072339

> <actual_activity_value>
5.585026652029182

> <Compound>
28

> <publication_ID>
nan

> <standard_units>
nM

> hash
11261695283669028271

$$$$
28_
XXILIB    08252103423D 0   0.00000     0.00000

 36 38  0     1  0            999 V2000
  -10.3558   -4.5197    4.0036 O   0  0  0  0  0  2           0  0  0
  -10.1160    0.1747    4.0014 O   0  0  0  0  0  2           0  0  0
   -7.0671    1.0646    4.0909 O   0  0  0  0  0  2           0  0  0
   -7.3646   -3.4122    4.0988 N   0  0  0  0  0  3           0  0  0
   -6.4336   -2.4284    4.1274 N   0  0  0  0  0  3           0  0  0
  -10.6888   -2.1504    3.9863 N   0  0  2  0  0  3           0  0  0
   -8.6157   -2.9184    4.0554 C   0  0  0  0  0  4           0  0  0
   -7.1458   -1.2789    4.0988 C   0  0  0  0  0  4           0  0  0
  -12.1047   -2.0770    3.9424 C   0  0  0  0  0  4           0  0  0
   -8.5167   -1.5621    4.0542 C   0  0  0  0  0  4           0  0  0
  -14.2611   -3.0233    3.2747 C   0  0  0  0  0  4           0  0  0
  -12.8594   -3.0866    3.3192 C   0  0  0  0  0  4           0  0  0
  -12.7863   -0.9923    4.5158 C   0  0  0  0  0  4           0  0  0
  -14.9142   -1.9256    3.8424 C   0  0  0  0  0  4           0  0  0
  -14.1798   -0.9181    4.4635 C   0  0  0  0  0  4           0  0  0
   -9.9677   -3.3629    4.0134 C   0  0  0  0  0  4           0  0  0
   -9.8457   -1.0149    4.0101 C   0  0  0  0  0  4           0  0  0
   -6.4504   -0.0000    4.1160 C   0  0  0  0  0  4           0  0  0
  -15.0453   -4.0871    2.5658 C   0  0  0  0  0  4           0  0  0
   -4.9386    0.0000    4.1775 C   0  0  0  0  0  4           0  0  0
   -4.3108    0.0000    2.7850 C   0  0  0  0  0  4           0  0  0
   -2.7833    0.0000    2.7850 C   0  0  0  0  0  4           0  0  0
   -2.1554    0.0000    1.3925 C   0  0  0  0  0  4           0  0  0
   -0.6279    0.0000    1.3925 C   0  0  0  0  0  4           0  0  0
    0.0000   -0.0000    0.0000 C   0  0  0  0  0  4           0  0  0
    1.5275   -0.0000   -0.0000 C   0  0  0  0  0  4           0  0  0
    2.1554    0.0000   -1.3925 C   0  0  0  0  0  4           0  0  0
    3.6829    0.0000   -1.3925 C   0  0  0  0  0  4           0  0  0
    4.3108    0.0000   -2.7850 C   0  0  0  0  0  4           0  0  0
    5.8383    0.0000   -2.7850 C   0  0  0  0  0  4           0  0  0
    6.4661    0.0000   -4.1775 C   0  0  0  0  0  4           0  0  0
    7.9937    0.0000   -4.1775 C   0  0  0  0  0  4           0  0  0
    8.6215    0.0000   -5.5700 C   0  0  0  0  0  4           0  0  0
   10.1490    0.0000   -5.5700 C   0  0  0  0  0  4           0  0  0
   10.7769    0.0000   -6.9625 C   0  0  0  0  0  4           0  0  0
   12.2949    0.0000   -6.8879 C   0  0  0  0  0  4           0  0  0
  1 16  2  0     0  0
  2 17  2  0     0  0
  3 18  2  0     0  0
  4  5  1  0     0  0
  4  7  1  0     0  0
  5  8  2  0     0  0
  6  9  1  0     0  0
  6 16  1  0     0  0
  6 17  1  0     0  0
  7 10  2  0     0  0
  7 16  1  0     0  0
  8 10  1  0     0  0
  8 18  1  0     0  0
  9 12  2  0     0  0
  9 13  1  0     0  0
 10 17  1  0     0  0
 11 12  1  0     0  0
 11 14  2  0     0  0
 11 19  1  0     0  0
 13 15  2  0     0  0
 14 15  1  0     0  0
 18 20  1  0     0  0
 20 21  1  0     0  0
 21 22  1  0     0  0
 22 23  1  0     0  0
 23 24  1  0     0  0
 24 25  1  0     0  0
 25 26  1  0     0  0
 26 27  1  0     0  0
 27 28  1  0     0  0
 28 29  1  0     0  0
 29 30  1  0     0  0
 30 31  1  0     0  0
 31 32  1  0     0  0
 32 33  1  0     0  0
 33 34  1  0     0  0
 34 35  1  0     0  0
 35 36  1  0     0  0
M  END
> <standard_type>
pIC50

> <# Confs.>
25

> <canonical_smiles>
O=C1C2=C(C(C(CCCCCCCCCCCCCCCCC)=O)=NN2)C(N1C3=CC(C)=CC=C3)=O

> <standard_relation>
=

> <predicted_activity_value>
5.424812155072339

> <actual_activity_value>
5.585026652029182

> <Compound>
28

> <publication_ID>
nan

> <standard_units>
nM

> hash
11261695283669028271

$$$$
28_
XXILIB    08252103423D 0   0.00000     0.00000

 36 38  0     1  0            999 V2000
  -10.3520    4.5197    3.9105 O   0  0  0  0  0  2           0  0  0
  -10.1132   -0.1747    3.9322 O   0  0  0  0  0  2           0  0  0
   -7.0671   -1.0646    4.0909 O   0  0  0  0  0  2           0  0  0
   -7.3630    3.4122    4.0588 N   0  0  0  0  0  3           0  0  0
   -6.4327    2.4284    4.1059 N   0  0  0  0  0  3           0  0  0
  -10.6853    2.1504    3.9008 N   0  0  2  0  0  3           0  0  0
   -8.6134    2.9184    4.0003 C   0  0  0  0  0  4           0  0  0
   -7.1449    1.2789    4.0766 C   0  0  0  0  0  4           0  0  0
  -12.1001    2.0770    3.8294 C   0  0  0  0  0  4           0  0  0
   -8.5149    1.5621    4.0096 C   0  0  0  0  0  4           0  0  0
  -14.1337    0.9107    3.1254 C   0  0  0  0  0  4           0  0  0
  -12.7341    0.9928    3.1971 C   0  0  0  0  0  4           0  0  0
  -12.9011    3.0871    4.3839 C   0  0  0  0  0  4           0  0  0
  -14.9077    1.9368    3.6747 C   0  0  0  0  0  4           0  0  0
  -14.2936    3.0168    4.3045 C   0  0  0  0  0  4           0  0  0
   -9.9644    3.3629    3.9323 C   0  0  0  0  0  4           0  0  0
   -9.8431    1.0149    3.9455 C   0  0  0  0  0  4           0  0  0
   -6.4504   -0.0000    4.1160 C   0  0  0  0  0  4           0  0  0
  -14.7898   -0.2307    2.4071 C   0  0  0  0  0  4           0  0  0
   -4.9386    0.0000    4.1775 C   0  0  0  0  0  4           0  0  0
   -4.3108    0.0000    2.7850 C   0  0  0  0  0  4           0  0  0
   -2.7833    0.0000    2.7850 C   0  0  0  0  0  4           0  0  0
   -2.1554    0.0000    1.3925 C   0  0  0  0  0  4           0  0  0
   -0.6279    0.0000    1.3925 C   0  0  0  0  0  4           0  0  0
    0.0000   -0.0000    0.0000 C   0  0  0  0  0  4           0  0  0
    1.5275   -0.0000   -0.0000 C   0  0  0  0  0  4           0  0  0
    2.1554    0.0000   -1.3925 C   0  0  0  0  0  4           0  0  0
    3.6829    0.0000   -1.3925 C   0  0  0  0  0  4           0  0  0
    4.3108    0.0000   -2.7850 C   0  0  0  0  0  4           0  0  0
    5.8383    0.0000   -2.7850 C   0  0  0  0  0  4           0  0  0
    6.4661    0.0000   -4.1775 C   0  0  0  0  0  4           0  0  0
    7.9937    0.0000   -4.1775 C   0  0  0  0  0  4           0  0  0
    8.6215    0.0000   -5.5700 C   0  0  0  0  0  4           0  0  0
   10.1490    0.0000   -5.5700 C   0  0  0  0  0  4           0  0  0
   10.7769    0.0000   -6.9625 C   0  0  0  0  0  4           0  0  0
   12.2949    0.0000   -6.8879 C   0  0  0  0  0  4           0  0  0
  1 16  2  0     0  0
  2 17  2  0     0  0
  3 18  2  0     0  0
  4  5  1  0     0  0
  4  7  1  0     0  0
  5  8  2  0     0  0
  6  9  1  0     0  0
  6 16  1  0     0  0
  6 17  1  0     0  0
  7 10  2  0     0  0
  7 16  1  0     0  0
  8 10  1  0     0  0
  8 18  1  0     0  0
  9 12  2  0     0  0
  9 13  1  0     0  0
 10 17  1  0     0  0
 11 12  1  0     0  0
 11 14  2  0     0  0
 11 19  1  0     0  0
 13 15  2  0     0  0
 14 15  1  0     0  0
 18 20  1  0     0  0
 20 21  1  0     0  0
 21 22  1  0     0  0
 22 23  1  0     0  0
 23 24  1  0     0  0
 24 25  1  0     0  0
 25 26  1  0     0  0
 26 27  1  0     0  0
 27 28  1  0     0  0
 28 29  1  0     0  0
 29 30  1  0     0  0
 30 31  1  0     0  0
 31 32  1  0     0  0
 32 33  1  0     0  0
 33 34  1  0     0  0
 34 35  1  0     0  0
 35 36  1  0     0  0
M  END
> <standard_type>
pIC50

> <# Confs.>
25

> <canonical_smiles>
O=C1C2=C(C(C(CCCCCCCCCCCCCCCCC)=O)=NN2)C(N1C3=CC(C)=CC=C3)=O

> <standard_relation>
=

> <predicted_activity_value>
5.424812155072339

> <actual_activity_value>
5.585026652029182

> <Compound>
28

> <publication_ID>
nan

> <standard_units>
nM

> hash
11261695283669028271

$$$$
28_
XXILIB    08252103423D 0   0.00000     0.00000

 36 38  0     1  0            999 V2000
  -10.5377   -4.9493   -0.0187 O   0  0  0  0  0  2           0  0  0
  -10.1075   -0.8896    2.3114 O   0  0  0  0  0  2           0  0  0
   -7.0238   -0.2097    2.6640 O   0  0  0  0  0  2           0  0  0
   -7.5026   -4.0831    0.4507 N   0  0  0  0  0  3           0  0  0
   -6.5319   -3.2599    0.9153 N   0  0  0  0  0  3           0  0  0
  -10.7745   -2.8854    1.1685 N   0  0  2  0  0  3           0  0  0
   -8.7333   -3.6155    0.7295 C   0  0  0  0  0  4           0  0  0
   -7.1973   -2.2403    1.5044 C   0  0  0  0  0  4           0  0  0
  -12.1869   -2.7789    1.2459 C   0  0  0  0  0  4           0  0  0
   -8.5794   -2.4427    1.4004 C   0  0  0  0  0  4           0  0  0
  -14.2109   -1.4064    1.3506 C   0  0  0  0  0  4           0  0  0
  -12.8136   -1.5205    1.2778 C   0  0  0  0  0  4           0  0  0
  -12.9925   -3.9269    1.2975 C   0  0  0  0  0  4           0  0  0
  -14.9892   -2.5658    1.4136 C   0  0  0  0  0  4           0  0  0
  -14.3823   -3.8191    1.3826 C   0  0  0  0  0  4           0  0  0
  -10.1029   -3.9589    0.5462 C   0  0  0  0  0  4           0  0  0
   -9.8857   -1.9273    1.7096 C   0  0  0  0  0  4           0  0  0
   -6.4504   -1.1526    2.1195 C   0  0  0  0  0  4           0  0  0
  -14.8576   -0.0555    1.4293 C   0  0  0  0  0  4           0  0  0
   -4.9386   -1.2059    2.0888 C   0  0  0  0  0  4           0  0  0
   -4.3108    0.0000    2.7850 C   0  0  0  0  0  4           0  0  0
   -2.7833    0.0000    2.7850 C   0  0  0  0  0  4           0  0  0
   -2.1554    0.0000    1.3925 C   0  0  0  0  0  4           0  0  0
   -0.6279    0.0000    1.3925 C   0  0  0  0  0  4           0  0  0
    0.0000    0.0000    0.0000 C   0  0  0  0  0  4           0  0  0
    1.5275   -0.0000   -0.0000 C   0  0  0  0  0  4           0  0  0
    2.1554    0.0000   -1.3925 C   0  0  0  0  0  4           0  0  0
    3.6829    0.0000   -1.3925 C   0  0  0  0  0  4           0  0  0
    4.3108    0.0000   -2.7850 C   0  0  0  0  0  4           0  0  0
    5.8383    0.0000   -2.7850 C   0  0  0  0  0  4           0  0  0
    6.4661    0.0000   -4.1775 C   0  0  0  0  0  4           0  0  0
    7.9937    0.0000   -4.1775 C   0  0  0  0  0  4           0  0  0
    8.6215    0.0000   -5.5700 C   0  0  0  0  0  4           0  0  0
   10.1490    0.0000   -5.5700 C   0  0  0  0  0  4           0  0  0
   10.7769    0.0000   -6.9625 C   0  0  0  0  0  4           0  0  0
   12.2949    0.0000   -6.8879 C   0  0  0  0  0  4           0  0  0
  1 16  2  0     0  0
  2 17  2  0     0  0
  3 18  2  0     0  0
  4  5  1  0     0  0
  4  7  1  0     0  0
  5  8  2  0     0  0
  6  9  1  0     0  0
  6 16  1  0     0  0
  6 17  1  0     0  0
  7 10  2  0     0  0
  7 16  1  0     0  0
  8 10  1  0     0  0
  8 18  1  0     0  0
  9 12  2  0     0  0
  9 13  1  0     0  0
 10 17  1  0     0  0
 11 12  1  0     0  0
 11 14  2  0     0  0
 11 19  1  0     0  0
 13 15  2  0     0  0
 14 15  1  0     0  0
 18 20  1  0     0  0
 20 21  1  0     0  0
 21 22  1  0     0  0
 22 23  1  0     0  0
 23 24  1  0     0  0
 24 25  1  0     0  0
 25 26  1  0     0  0
 26 27  1  0     0  0
 27 28  1  0     0  0
 28 29  1  0     0  0
 29 30  1  0     0  0
 30 31  1  0     0  0
 31 32  1  0     0  0
 32 33  1  0     0  0
 33 34  1  0     0  0
 34 35  1  0     0  0
 35 36  1  0     0  0
M  END
> <standard_type>
pIC50

> <# Confs.>
25

> <canonical_smiles>
O=C1C2=C(C(C(CCCCCCCCCCCCCCCCC)=O)=NN2)C(N1C3=CC(C)=CC=C3)=O

> <standard_relation>
=

> <predicted_activity_value>
5.424812155072339

> <actual_activity_value>
5.585026652029182

> <Compound>
28

> <publication_ID>
nan

> <standard_units>
nM

> hash
11261695283669028271

$$$$
28_
XXILIB    08252103423D 0   0.00000     0.00000

 36 38  0     1  0            999 V2000
  -10.3520    4.5197    3.9105 O   0  0  0  0  0  2           0  0  0
  -10.1132   -0.1747    3.9322 O   0  0  0  0  0  2           0  0  0
   -7.0671   -1.0646    4.0909 O   0  0  0  0  0  2           0  0  0
   -7.3630    3.4122    4.0588 N   0  0  0  0  0  3           0  0  0
   -6.4327    2.4284    4.1059 N   0  0  0  0  0  3           0  0  0
  -10.6853    2.1504    3.9008 N   0  0  2  0  0  3           0  0  0
   -8.6134    2.9184    4.0003 C   0  0  0  0  0  4           0  0  0
   -7.1449    1.2789    4.0766 C   0  0  0  0  0  4           0  0  0
  -12.1001    2.0770    3.8294 C   0  0  0  0  0  4           0  0  0
   -8.5149    1.5621    4.0096 C   0  0  0  0  0  4           0  0  0
  -14.3036    3.0233    4.3196 C   0  0  0  0  0  4           0  0  0
  -12.9029    3.0866    4.3892 C   0  0  0  0  0  4           0  0  0
  -12.7328    0.9923    3.2025 C   0  0  0  0  0  4           0  0  0
  -14.9085    1.9256    3.7007 C   0  0  0  0  0  4           0  0  0
  -14.1260    0.9181    3.1413 C   0  0  0  0  0  4           0  0  0
   -9.9644    3.3629    3.9323 C   0  0  0  0  0  4           0  0  0
   -9.8431    1.0149    3.9455 C   0  0  0  0  0  4           0  0  0
   -6.4504   -0.0000    4.1160 C   0  0  0  0  0  4           0  0  0
  -15.1428    4.0871    4.9624 C   0  0  0  0  0  4           0  0  0
   -4.9386    0.0000    4.1775 C   0  0  0  0  0  4           0  0  0
   -4.3108    0.0000    2.7850 C   0  0  0  0  0  4           0  0  0
   -2.7833    0.0000    2.7850 C   0  0  0  0  0  4           0  0  0
   -2.1554    0.0000    1.3925 C   0  0  0  0  0  4           0  0  0
   -0.6279    0.0000    1.3925 C   0  0  0  0  0  4           0  0  0
    0.0000   -0.0000    0.0000 C   0  0  0  0  0  4           0  0  0
    1.5275   -0.0000   -0.0000 C   0  0  0  0  0  4           0  0  0
    2.1554    0.0000   -1.3925 C   0  0  0  0  0  4           0  0  0
    3.6829    0.0000   -1.3925 C   0  0  0  0  0  4           0  0  0
    4.3108    0.0000   -2.7850 C   0  0  0  0  0  4           0  0  0
    5.8383    0.0000   -2.7850 C   0  0  0  0  0  4           0  0  0
    6.4661    0.0000   -4.1775 C   0  0  0  0  0  4           0  0  0
    7.9937    0.0000   -4.1775 C   0  0  0  0  0  4           0  0  0
    8.6215    0.0000   -5.5700 C   0  0  0  0  0  4           0  0  0
   10.1490    0.0000   -5.5700 C   0  0  0  0  0  4           0  0  0
   10.7769    0.0000   -6.9625 C   0  0  0  0  0  4           0  0  0
   12.2949    0.0000   -6.8879 C   0  0  0  0  0  4           0  0  0
  1 16  2  0     0  0
  2 17  2  0     0  0
  3 18  2  0     0  0
  4  5  1  0     0  0
  4  7  1  0     0  0
  5  8  2  0     0  0
  6  9  1  0     0  0
  6 16  1  0     0  0
  6 17  1  0     0  0
  7 10  2  0     0  0
  7 16  1  0     0  0
  8 10  1  0     0  0
  8 18  1  0     0  0
  9 12  2  0     0  0
  9 13  1  0     0  0
 10 17  1  0     0  0
 11 12  1  0     0  0
 11 14  2  0     0  0
 11 19  1  0     0  0
 13 15  2  0     0  0
 14 15  1  0     0  0
 18 20  1  0     0  0
 20 21  1  0     0  0
 21 22  1  0     0  0
 22 23  1  0     0  0
 23 24  1  0     0  0
 24 25  1  0     0  0
 25 26  1  0     0  0
 26 27  1  0     0  0
 27 28  1  0     0  0
 28 29  1  0     0  0
 29 30  1  0     0  0
 30 31  1  0     0  0
 31 32  1  0     0  0
 32 33  1  0     0  0
 33 34  1  0     0  0
 34 35  1  0     0  0
 35 36  1  0     0  0
M  END
> <standard_type>
pIC50

> <# Confs.>
25

> <canonical_smiles>
O=C1C2=C(C(C(CCCCCCCCCCCCCCCCC)=O)=NN2)C(N1C3=CC(C)=CC=C3)=O

> <standard_relation>
=

> <predicted_activity_value>
5.424812155072339

> <actual_activity_value>
5.585026652029182

> <Compound>
28

> <publication_ID>
nan

> <standard_units>
nM

> hash
11261695283669028271

$$$$
28_
XXILIB    08252103423D 0   0.00000     0.00000

 36 38  0     1  0            999 V2000
  -10.5122    2.3002    7.8448 O   0  0  0  0  0  2           0  0  0
  -10.1077   -0.0573    3.7983 O   0  0  0  0  0  2           0  0  0
   -7.0296   -0.5323    3.1697 O   0  0  0  0  0  2           0  0  0
   -7.4836    1.7234    7.0214 N   0  0  0  0  0  3           0  0  0
   -6.5184    1.2235    6.2126 N   0  0  0  0  0  3           0  0  0
  -10.7619    1.1122    5.7829 N   0  0  2  0  0  3           0  0  0
   -8.7168    1.4831    6.5394 C   0  0  0  0  0  4           0  0  0
   -7.1901    0.6491    5.1887 C   0  0  0  0  0  4           0  0  0
  -12.1744    1.0875    5.6548 C   0  0  0  0  0  4           0  0  0
   -8.5704    0.8004    5.3725 C   0  0  0  0  0  4           0  0  0
  -14.3995    1.0589    6.6744 C   0  0  0  0  0  4           0  0  0
  -13.0008    1.0796    6.7925 C   0  0  0  0  0  4           0  0  0
  -12.7811    1.0653    4.3895 C   0  0  0  0  0  4           0  0  0
  -14.9777    1.0242    5.4023 C   0  0  0  0  0  4           0  0  0
  -14.1718    1.0321    4.2663 C   0  0  0  0  0  4           0  0  0
  -10.0837    1.7166    6.8625 C   0  0  0  0  0  4           0  0  0
   -9.8795    0.5354    4.8398 C   0  0  0  0  0  4           0  0  0
   -6.4504   -0.0000    4.1160 C   0  0  0  0  0  4           0  0  0
  -15.2624    1.0049    7.8999 C   0  0  0  0  0  4           0  0  0
   -4.9386    0.0000    4.1775 C   0  0  0  0  0  4           0  0  0
   -4.3108    0.0000    2.7850 C   0  0  0  0  0  4           0  0  0
   -2.7833    0.0000    2.7850 C   0  0  0  0  0  4           0  0  0
   -2.1554    0.0000    1.3925 C   0  0  0  0  0  4           0  0  0
   -0.6279    0.0000    1.3925 C   0  0  0  0  0  4           0  0  0
    0.0000   -0.0000    0.0000 C   0  0  0  0  0  4           0  0  0
    1.5275   -0.0000   -0.0000 C   0  0  0  0  0  4           0  0  0
    2.1554    0.0000   -1.3925 C   0  0  0  0  0  4           0  0  0
    3.6829    0.0000   -1.3925 C   0  0  0  0  0  4           0  0  0
    4.3108    0.0000   -2.7850 C   0  0  0  0  0  4           0  0  0
    5.8383    0.0000   -2.7850 C   0  0  0  0  0  4           0  0  0
    6.4661    0.0000   -4.1775 C   0  0  0  0  0  4           0  0  0
    7.9937    0.0000   -4.1775 C   0  0  0  0  0  4           0  0  0
    8.6215    0.0000   -5.5700 C   0  0  0  0  0  4           0  0  0
   10.1490    0.0000   -5.5700 C   0  0  0  0  0  4           0  0  0
   10.7769    0.0000   -6.9625 C   0  0  0  0  0  4           0  0  0
   12.2949    0.0000   -6.8879 C   0  0  0  0  0  4           0  0  0
  1 16  2  0     0  0
  2 17  2  0     0  0
  3 18  2  0     0  0
  4  5  1  0     0  0
  4  7  1  0     0  0
  5  8  2  0     0  0
  6  9  1  0     0  0
  6 16  1  0     0  0
  6 17  1  0     0  0
  7 10  2  0     0  0
  7 16  1  0     0  0
  8 10  1  0     0  0
  8 18  1  0     0  0
  9 12  2  0     0  0
  9 13  1  0     0  0
 10 17  1  0     0  0
 11 12  1  0     0  0
 11 14  2  0     0  0
 11 19  1  0     0  0
 13 15  2  0     0  0
 14 15  1  0     0  0
 18 20  1  0     0  0
 20 21  1  0     0  0
 21 22  1  0     0  0
 22 23  1  0     0  0
 23 24  1  0     0  0
 24 25  1  0     0  0
 25 26  1  0     0  0
 26 27  1  0     0  0
 27 28  1  0     0  0
 28 29  1  0     0  0
 29 30  1  0     0  0
 30 31  1  0     0  0
 31 32  1  0     0  0
 32 33  1  0     0  0
 33 34  1  0     0  0
 34 35  1  0     0  0
 35 36  1  0     0  0
M  END
> <standard_type>
pIC50

> <# Confs.>
25

> <canonical_smiles>
O=C1C2=C(C(C(CCCCCCCCCCCCCCCCC)=O)=NN2)C(N1C3=CC(C)=CC=C3)=O

> <standard_relation>
=

> <predicted_activity_value>
5.424812155072339

> <actual_activity_value>
5.585026652029182

> <Compound>
28

> <publication_ID>
nan

> <standard_units>
nM

> hash
11261695283669028271

$$$$
28_
XXILIB    08252103423D 0   0.00000     0.00000

 36 38  0     1  0            999 V2000
  -10.5377   -4.9493   -0.0187 O   0  0  0  0  0  2           0  0  0
  -10.1075   -0.8896    2.3114 O   0  0  0  0  0  2           0  0  0
   -7.0238   -0.2097    2.6640 O   0  0  0  0  0  2           0  0  0
   -7.5026   -4.0831    0.4507 N   0  0  0  0  0  3           0  0  0
   -6.5319   -3.2599    0.9153 N   0  0  0  0  0  3           0  0  0
  -10.7745   -2.8854    1.1685 N   0  0  2  0  0  3           0  0  0
   -8.7333   -3.6155    0.7295 C   0  0  0  0  0  4           0  0  0
   -7.1973   -2.2403    1.5044 C   0  0  0  0  0  4           0  0  0
  -12.1869   -2.7789    1.2459 C   0  0  0  0  0  4           0  0  0
   -8.5794   -2.4427    1.4004 C   0  0  0  0  0  4           0  0  0
  -14.3927   -3.8322    1.3732 C   0  0  0  0  0  4           0  0  0
  -12.9945   -3.9290    1.2927 C   0  0  0  0  0  4           0  0  0
  -12.8125   -1.5229    1.2729 C   0  0  0  0  0  4           0  0  0
  -14.9910   -2.5690    1.3856 C   0  0  0  0  0  4           0  0  0
  -14.2037   -1.4208    1.3402 C   0  0  0  0  0  4           0  0  0
  -10.1029   -3.9589    0.5462 C   0  0  0  0  0  4           0  0  0
   -9.8857   -1.9273    1.7096 C   0  0  0  0  0  4           0  0  0
   -6.4504   -1.1526    2.1195 C   0  0  0  0  0  4           0  0  0
  -15.2388   -5.0705    1.3763 C   0  0  0  0  0  4           0  0  0
   -4.9386   -1.2059    2.0888 C   0  0  0  0  0  4           0  0  0
   -4.3108    0.0000    2.7850 C   0  0  0  0  0  4           0  0  0
   -2.7833    0.0000    2.7850 C   0  0  0  0  0  4           0  0  0
   -2.1554    0.0000    1.3925 C   0  0  0  0  0  4           0  0  0
   -0.6279    0.0000    1.3925 C   0  0  0  0  0  4           0  0  0
    0.0000    0.0000    0.0000 C   0  0  0  0  0  4           0  0  0
    1.5275   -0.0000   -0.0000 C   0  0  0  0  0  4           0  0  0
    2.1554    0.0000   -1.3925 C   0  0  0  0  0  4           0  0  0
    3.6829    0.0000   -1.3925 C   0  0  0  0  0  4           0  0  0
    4.3108    0.0000   -2.7850 C   0  0  0  0  0  4           0  0  0
    5.8383    0.0000   -2.7850 C   0  0  0  0  0  4           0  0  0
    6.4661    0.0000   -4.1775 C   0  0  0  0  0  4           0  0  0
    7.9937    0.0000   -4.1775 C   0  0  0  0  0  4           0  0  0
    8.6215    0.0000   -5.5700 C   0  0  0  0  0  4           0  0  0
   10.1490    0.0000   -5.5700 C   0  0  0  0  0  4           0  0  0
   10.7769    0.0000   -6.9625 C   0  0  0  0  0  4           0  0  0
   12.2949    0.0000   -6.8879 C   0  0  0  0  0  4           0  0  0
  1 16  2  0     0  0
  2 17  2  0     0  0
  3 18  2  0     0  0
  4  5  1  0     0  0
  4  7  1  0     0  0
  5  8  2  0     0  0
  6  9  1  0     0  0
  6 16  1  0     0  0
  6 17  1  0     0  0
  7 10  2  0     0  0
  7 16  1  0     0  0
  8 10  1  0     0  0
  8 18  1  0     0  0
  9 12  2  0     0  0
  9 13  1  0     0  0
 10 17  1  0     0  0
 11 12  1  0     0  0
 11 14  2  0     0  0
 11 19  1  0     0  0
 13 15  2  0     0  0
 14 15  1  0     0  0
 18 20  1  0     0  0
 20 21  1  0     0  0
 21 22  1  0     0  0
 22 23  1  0     0  0
 23 24  1  0     0  0
 24 25  1  0     0  0
 25 26  1  0     0  0
 26 27  1  0     0  0
 27 28  1  0     0  0
 28 29  1  0     0  0
 29 30  1  0     0  0
 30 31  1  0     0  0
 31 32  1  0     0  0
 32 33  1  0     0  0
 33 34  1  0     0  0
 34 35  1  0     0  0
 35 36  1  0     0  0
M  END
> <standard_type>
pIC50

> <# Confs.>
25

> <canonical_smiles>
O=C1C2=C(C(C(CCCCCCCCCCCCCCCCC)=O)=NN2)C(N1C3=CC(C)=CC=C3)=O

> <standard_relation>
=

> <predicted_activity_value>
5.424812155072339

> <actual_activity_value>
5.585026652029182

> <Compound>
28

> <publication_ID>
nan

> <standard_units>
nM

> hash
11261695283669028271

$$$$
28_
XXILIB    08252103423D 0   0.00000     0.00000

 36 38  0     1  0            999 V2000
  -10.3558   -4.5197    4.0036 O   0  0  0  0  0  2           0  0  0
  -10.1160    0.1747    4.0014 O   0  0  0  0  0  2           0  0  0
   -7.0671    1.0646    4.0909 O   0  0  0  0  0  2           0  0  0
   -7.3646   -3.4122    4.0988 N   0  0  0  0  0  3           0  0  0
   -6.4336   -2.4284    4.1274 N   0  0  0  0  0  3           0  0  0
  -10.6888   -2.1504    3.9863 N   0  0  2  0  0  3           0  0  0
   -8.6157   -2.9184    4.0554 C   0  0  0  0  0  4           0  0  0
   -7.1458   -1.2789    4.0988 C   0  0  0  0  0  4           0  0  0
  -12.1047   -2.0770    3.9424 C   0  0  0  0  0  4           0  0  0
   -8.5167   -1.5621    4.0542 C   0  0  0  0  0  4           0  0  0
  -14.1516   -0.9194    3.2630 C   0  0  0  0  0  4           0  0  0
  -12.7509   -0.9977    3.3140 C   0  0  0  0  0  4           0  0  0
  -12.8948   -3.0774    4.5294 C   0  0  0  0  0  4           0  0  0
  -14.9148   -1.9228    3.8667 C   0  0  0  0  0  4           0  0  0
  -14.2886   -2.9982    4.4925 C   0  0  0  0  0  4           0  0  0
   -9.9677   -3.3629    4.0134 C   0  0  0  0  0  4           0  0  0
   -9.8457   -1.0149    4.0101 C   0  0  0  0  0  4           0  0  0
   -6.4504   -0.0000    4.1160 C   0  0  0  0  0  4           0  0  0
  -14.8216    0.2626    2.6279 C   0  0  0  0  0  4           0  0  0
   -4.9386    0.0000    4.1775 C   0  0  0  0  0  4           0  0  0
   -4.3108    0.0000    2.7850 C   0  0  0  0  0  4           0  0  0
   -2.7833    0.0000    2.7850 C   0  0  0  0  0  4           0  0  0
   -2.1554    0.0000    1.3925 C   0  0  0  0  0  4           0  0  0
   -0.6279    0.0000    1.3925 C   0  0  0  0  0  4           0  0  0
    0.0000   -0.0000    0.0000 C   0  0  0  0  0  4           0  0  0
    1.5275   -0.0000   -0.0000 C   0  0  0  0  0  4           0  0  0
    2.1554    0.0000   -1.3925 C   0  0  0  0  0  4           0  0  0
    3.6829    0.0000   -1.3925 C   0  0  0  0  0  4           0  0  0
    4.3108    0.0000   -2.7850 C   0  0  0  0  0  4           0  0  0
    5.8383    0.0000   -2.7850 C   0  0  0  0  0  4           0  0  0
    6.4661    0.0000   -4.1775 C   0  0  0  0  0  4           0  0  0
    7.9937    0.0000   -4.1775 C   0  0  0  0  0  4           0  0  0
    8.6215    0.0000   -5.5700 C   0  0  0  0  0  4           0  0  0
   10.1490    0.0000   -5.5700 C   0  0  0  0  0  4           0  0  0
   10.7769    0.0000   -6.9625 C   0  0  0  0  0  4           0  0  0
   12.2949    0.0000   -6.8879 C   0  0  0  0  0  4           0  0  0
  1 16  2  0     0  0
  2 17  2  0     0  0
  3 18  2  0     0  0
  4  5  1  0     0  0
  4  7  1  0     0  0
  5  8  2  0     0  0
  6  9  1  0     0  0
  6 16  1  0     0  0
  6 17  1  0     0  0
  7 10  2  0     0  0
  7 16  1  0     0  0
  8 10  1  0     0  0
  8 18  1  0     0  0
  9 12  2  0     0  0
  9 13  1  0     0  0
 10 17  1  0     0  0
 11 12  1  0     0  0
 11 14  2  0     0  0
 11 19  1  0     0  0
 13 15  2  0     0  0
 14 15  1  0     0  0
 18 20  1  0     0  0
 20 21  1  0     0  0
 21 22  1  0     0  0
 22 23  1  0     0  0
 23 24  1  0     0  0
 24 25  1  0     0  0
 25 26  1  0     0  0
 26 27  1  0     0  0
 27 28  1  0     0  0
 28 29  1  0     0  0
 29 30  1  0     0  0
 30 31  1  0     0  0
 31 32  1  0     0  0
 32 33  1  0     0  0
 33 34  1  0     0  0
 34 35  1  0     0  0
 35 36  1  0     0  0
M  END
> <standard_type>
pIC50

> <# Confs.>
25

> <canonical_smiles>
O=C1C2=C(C(C(CCCCCCCCCCCCCCCCC)=O)=NN2)C(N1C3=CC(C)=CC=C3)=O

> <standard_relation>
=

> <predicted_activity_value>
5.424812155072339

> <actual_activity_value>
5.585026652029182

> <Compound>
28

> <publication_ID>
nan

> <standard_units>
nM

> hash
11261695283669028271

$$$$
28_
XXILIB    08252103423D 0   0.00000     0.00000

 36 38  0     1  0            999 V2000
  -10.3520    4.5197    3.9105 O   0  0  0  0  0  2           0  0  0
  -10.1132   -0.1747    3.9322 O   0  0  0  0  0  2           0  0  0
   -7.0671   -1.0646    4.0909 O   0  0  0  0  0  2           0  0  0
   -7.3630    3.4122    4.0588 N   0  0  0  0  0  3           0  0  0
   -6.4327    2.4284    4.1059 N   0  0  0  0  0  3           0  0  0
  -10.6853    2.1504    3.9008 N   0  0  2  0  0  3           0  0  0
   -8.6134    2.9184    4.0003 C   0  0  0  0  0  4           0  0  0
   -7.1449    1.2789    4.0766 C   0  0  0  0  0  4           0  0  0
  -12.1001    2.0770    3.8294 C   0  0  0  0  0  4           0  0  0
   -8.5149    1.5621    4.0096 C   0  0  0  0  0  4           0  0  0
  -14.1955    0.9194    4.3402 C   0  0  0  0  0  4           0  0  0
  -12.7952    0.9977    4.4031 C   0  0  0  0  0  4           0  0  0
  -12.8399    3.0774    3.1801 C   0  0  0  0  0  4           0  0  0
  -14.9071    1.9228    3.6764 C   0  0  0  0  0  4           0  0  0
  -14.2320    2.9982    3.1036 C   0  0  0  0  0  4           0  0  0
   -9.9644    3.3629    3.9323 C   0  0  0  0  0  4           0  0  0
   -9.8431    1.0149    3.9455 C   0  0  0  0  0  4           0  0  0
   -6.4504   -0.0000    4.1160 C   0  0  0  0  0  4           0  0  0
  -14.9149   -0.2626    4.9187 C   0  0  0  0  0  4           0  0  0
   -4.9386    0.0000    4.1775 C   0  0  0  0  0  4           0  0  0
   -4.3108    0.0000    2.7850 C   0  0  0  0  0  4           0  0  0
   -2.7833    0.0000    2.7850 C   0  0  0  0  0  4           0  0  0
   -2.1554    0.0000    1.3925 C   0  0  0  0  0  4           0  0  0
   -0.6279    0.0000    1.3925 C   0  0  0  0  0  4           0  0  0
    0.0000   -0.0000    0.0000 C   0  0  0  0  0  4           0  0  0
    1.5275   -0.0000   -0.0000 C   0  0  0  0  0  4           0  0  0
    2.1554    0.0000   -1.3925 C   0  0  0  0  0  4           0  0  0
    3.6829    0.0000   -1.3925 C   0  0  0  0  0  4           0  0  0
    4.3108    0.0000   -2.7850 C   0  0  0  0  0  4           0  0  0
    5.8383    0.0000   -2.7850 C   0  0  0  0  0  4           0  0  0
    6.4661    0.0000   -4.1775 C   0  0  0  0  0  4           0  0  0
    7.9937    0.0000   -4.1775 C   0  0  0  0  0  4           0  0  0
    8.6215    0.0000   -5.5700 C   0  0  0  0  0  4           0  0  0
   10.1490    0.0000   -5.5700 C   0  0  0  0  0  4           0  0  0
   10.7769    0.0000   -6.9625 C   0  0  0  0  0  4           0  0  0
   12.2949    0.0000   -6.8879 C   0  0  0  0  0  4           0  0  0
  1 16  2  0     0  0
  2 17  2  0     0  0
  3 18  2  0     0  0
  4  5  1  0     0  0
  4  7  1  0     0  0
  5  8  2  0     0  0
  6  9  1  0     0  0
  6 16  1  0     0  0
  6 17  1  0     0  0
  7 10  2  0     0  0
  7 16  1  0     0  0
  8 10  1  0     0  0
  8 18  1  0     0  0
  9 12  2  0     0  0
  9 13  1  0     0  0
 10 17  1  0     0  0
 11 12  1  0     0  0
 11 14  2  0     0  0
 11 19  1  0     0  0
 13 15  2  0     0  0
 14 15  1  0     0  0
 18 20  1  0     0  0
 20 21  1  0     0  0
 21 22  1  0     0  0
 22 23  1  0     0  0
 23 24  1  0     0  0
 24 25  1  0     0  0
 25 26  1  0     0  0
 26 27  1  0     0  0
 27 28  1  0     0  0
 28 29  1  0     0  0
 29 30  1  0     0  0
 30 31  1  0     0  0
 31 32  1  0     0  0
 32 33  1  0     0  0
 33 34  1  0     0  0
 34 35  1  0     0  0
 35 36  1  0     0  0
M  END
> <standard_type>
pIC50

> <# Confs.>
25

> <canonical_smiles>
O=C1C2=C(C(C(CCCCCCCCCCCCCCCCC)=O)=NN2)C(N1C3=CC(C)=CC=C3)=O

> <standard_relation>
=

> <predicted_activity_value>
5.424812155072339

> <actual_activity_value>
5.585026652029182

> <Compound>
28

> <publication_ID>
nan

> <standard_units>
nM

> hash
11261695283669028271

$$$$
28_
XXILIB    08252103423D 0   0.00000     0.00000

 36 38  0     1  0            999 V2000
  -10.5122    2.3002    7.8448 O   0  0  0  0  0  2           0  0  0
  -10.1077   -0.0573    3.7983 O   0  0  0  0  0  2           0  0  0
   -7.0296   -0.5323    3.1697 O   0  0  0  0  0  2           0  0  0
   -7.4836    1.7234    7.0214 N   0  0  0  0  0  3           0  0  0
   -6.5184    1.2235    6.2126 N   0  0  0  0  0  3           0  0  0
  -10.7619    1.1122    5.7829 N   0  0  2  0  0  3           0  0  0
   -8.7168    1.4831    6.5394 C   0  0  0  0  0  4           0  0  0
   -7.1901    0.6491    5.1887 C   0  0  0  0  0  4           0  0  0
  -12.1744    1.0875    5.6548 C   0  0  0  0  0  4           0  0  0
   -8.5704    0.8004    5.3725 C   0  0  0  0  0  4           0  0  0
  -14.2169   -0.0071    4.8664 C   0  0  0  0  0  4           0  0  0
  -12.8193    0.0268    4.9942 C   0  0  0  0  0  4           0  0  0
  -12.9620    2.1234    6.1803 C   0  0  0  0  0  4           0  0  0
  -14.9768    1.0439    5.3878 C   0  0  0  0  0  4           0  0  0
  -14.3518    2.1010    6.0451 C   0  0  0  0  0  4           0  0  0
  -10.0837    1.7166    6.8625 C   0  0  0  0  0  4           0  0  0
   -9.8795    0.5354    4.8398 C   0  0  0  0  0  4           0  0  0
   -6.4504   -0.0000    4.1160 C   0  0  0  0  0  4           0  0  0
  -14.8823   -1.1240    4.1188 C   0  0  0  0  0  4           0  0  0
   -4.9386    0.0000    4.1775 C   0  0  0  0  0  4           0  0  0
   -4.3108    0.0000    2.7850 C   0  0  0  0  0  4           0  0  0
   -2.7833    0.0000    2.7850 C   0  0  0  0  0  4           0  0  0
   -2.1554    0.0000    1.3925 C   0  0  0  0  0  4           0  0  0
   -0.6279    0.0000    1.3925 C   0  0  0  0  0  4           0  0  0
    0.0000   -0.0000    0.0000 C   0  0  0  0  0  4           0  0  0
    1.5275   -0.0000   -0.0000 C   0  0  0  0  0  4           0  0  0
    2.1554    0.0000   -1.3925 C   0  0  0  0  0  4           0  0  0
    3.6829    0.0000   -1.3925 C   0  0  0  0  0  4           0  0  0
    4.3108    0.0000   -2.7850 C   0  0  0  0  0  4           0  0  0
    5.8383    0.0000   -2.7850 C   0  0  0  0  0  4           0  0  0
    6.4661    0.0000   -4.1775 C   0  0  0  0  0  4           0  0  0
    7.9937    0.0000   -4.1775 C   0  0  0  0  0  4           0  0  0
    8.6215    0.0000   -5.5700 C   0  0  0  0  0  4           0  0  0
   10.1490    0.0000   -5.5700 C   0  0  0  0  0  4           0  0  0
   10.7769    0.0000   -6.9625 C   0  0  0  0  0  4           0  0  0
   12.2949    0.0000   -6.8879 C   0  0  0  0  0  4           0  0  0
  1 16  2  0     0  0
  2 17  2  0     0  0
  3 18  2  0     0  0
  4  5  1  0     0  0
  4  7  1  0     0  0
  5  8  2  0     0  0
  6  9  1  0     0  0
  6 16  1  0     0  0
  6 17  1  0     0  0
  7 10  2  0     0  0
  7 16  1  0     0  0
  8 10  1  0     0  0
  8 18  1  0     0  0
  9 12  2  0     0  0
  9 13  1  0     0  0
 10 17  1  0     0  0
 11 12  1  0     0  0
 11 14  2  0     0  0
 11 19  1  0     0  0
 13 15  2  0     0  0
 14 15  1  0     0  0
 18 20  1  0     0  0
 20 21  1  0     0  0
 21 22  1  0     0  0
 22 23  1  0     0  0
 23 24  1  0     0  0
 24 25  1  0     0  0
 25 26  1  0     0  0
 26 27  1  0     0  0
 27 28  1  0     0  0
 28 29  1  0     0  0
 29 30  1  0     0  0
 30 31  1  0     0  0
 31 32  1  0     0  0
 32 33  1  0     0  0
 33 34  1  0     0  0
 34 35  1  0     0  0
 35 36  1  0     0  0
M  END
> <standard_type>
pIC50

> <# Confs.>
25

> <canonical_smiles>
O=C1C2=C(C(C(CCCCCCCCCCCCCCCCC)=O)=NN2)C(N1C3=CC(C)=CC=C3)=O

> <standard_relation>
=

> <predicted_activity_value>
5.424812155072339

> <actual_activity_value>
5.585026652029182

> <Compound>
28

> <publication_ID>
nan

> <standard_units>
nM

> hash
11261695283669028271

$$$$
28_
XXILIB    08252103423D 0   0.00000     0.00000

 36 38  0     1  0            999 V2000
  -10.3558   -4.5197    4.0036 O   0  0  0  0  0  2           0  0  0
  -10.1160    0.1747    4.0014 O   0  0  0  0  0  2           0  0  0
   -7.0671    1.0646    4.0909 O   0  0  0  0  0  2           0  0  0
   -7.3646   -3.4122    4.0988 N   0  0  0  0  0  3           0  0  0
   -6.4336   -2.4284    4.1274 N   0  0  0  0  0  3           0  0  0
  -10.6888   -2.1504    3.9863 N   0  0  2  0  0  3           0  0  0
   -8.6157   -2.9184    4.0554 C   0  0  0  0  0  4           0  0  0
   -7.1458   -1.2789    4.0988 C   0  0  0  0  0  4           0  0  0
  -12.1047   -2.0770    3.9424 C   0  0  0  0  0  4           0  0  0
   -8.5167   -1.5621    4.0542 C   0  0  0  0  0  4           0  0  0
  -14.2983   -3.0146    4.4905 C   0  0  0  0  0  4           0  0  0
  -12.8965   -3.0817    4.5262 C   0  0  0  0  0  4           0  0  0
  -12.7495   -1.0021    3.3110 C   0  0  0  0  0  4           0  0  0
  -14.9150   -1.9396    3.8440 C   0  0  0  0  0  4           0  0  0
  -14.1436   -0.9368    3.2615 C   0  0  0  0  0  4           0  0  0
   -9.9677   -3.3629    4.0134 C   0  0  0  0  0  4           0  0  0
   -9.8457   -1.0149    4.0101 C   0  0  0  0  0  4           0  0  0
   -6.4504   -0.0000    4.1160 C   0  0  0  0  0  4           0  0  0
  -15.1248   -4.1189    5.0792 C   0  0  0  0  0  4           0  0  0
   -4.9386    0.0000    4.1775 C   0  0  0  0  0  4           0  0  0
   -4.3108    0.0000    2.7850 C   0  0  0  0  0  4           0  0  0
   -2.7833    0.0000    2.7850 C   0  0  0  0  0  4           0  0  0
   -2.1554    0.0000    1.3925 C   0  0  0  0  0  4           0  0  0
   -0.6279    0.0000    1.3925 C   0  0  0  0  0  4           0  0  0
    0.0000   -0.0000    0.0000 C   0  0  0  0  0  4           0  0  0
    1.5275   -0.0000   -0.0000 C   0  0  0  0  0  4           0  0  0
    2.1554    0.0000   -1.3925 C   0  0  0  0  0  4           0  0  0
    3.6829    0.0000   -1.3925 C   0  0  0  0  0  4           0  0  0
    4.3108    0.0000   -2.7850 C   0  0  0  0  0  4           0  0  0
    5.8383    0.0000   -2.7850 C   0  0  0  0  0  4           0  0  0
    6.4661    0.0000   -4.1775 C   0  0  0  0  0  4           0  0  0
    7.9937    0.0000   -4.1775 C   0  0  0  0  0  4           0  0  0
    8.6215    0.0000   -5.5700 C   0  0  0  0  0  4           0  0  0
   10.1490    0.0000   -5.5700 C   0  0  0  0  0  4           0  0  0
   10.7769    0.0000   -6.9625 C   0  0  0  0  0  4           0  0  0
   12.2949    0.0000   -6.8879 C   0  0  0  0  0  4           0  0  0
  1 16  2  0     0  0
  2 17  2  0     0  0
  3 18  2  0     0  0
  4  5  1  0     0  0
  4  7  1  0     0  0
  5  8  2  0     0  0
  6  9  1  0     0  0
  6 16  1  0     0  0
  6 17  1  0     0  0
  7 10  2  0     0  0
  7 16  1  0     0  0
  8 10  1  0     0  0
  8 18  1  0     0  0
  9 12  2  0     0  0
  9 13  1  0     0  0
 10 17  1  0     0  0
 11 12  1  0     0  0
 11 14  2  0     0  0
 11 19  1  0     0  0
 13 15  2  0     0  0
 14 15  1  0     0  0
 18 20  1  0     0  0
 20 21  1  0     0  0
 21 22  1  0     0  0
 22 23  1  0     0  0
 23 24  1  0     0  0
 24 25  1  0     0  0
 25 26  1  0     0  0
 26 27  1  0     0  0
 27 28  1  0     0  0
 28 29  1  0     0  0
 29 30  1  0     0  0
 30 31  1  0     0  0
 31 32  1  0     0  0
 32 33  1  0     0  0
 33 34  1  0     0  0
 34 35  1  0     0  0
 35 36  1  0     0  0
M  END
> <standard_type>
pIC50

> <# Confs.>
25

> <canonical_smiles>
O=C1C2=C(C(C(CCCCCCCCCCCCCCCCC)=O)=NN2)C(N1C3=CC(C)=CC=C3)=O

> <standard_relation>
=

> <predicted_activity_value>
5.424812155072339

> <actual_activity_value>
5.585026652029182

> <Compound>
28

> <publication_ID>
nan

> <standard_units>
nM

> hash
11261695283669028271

$$$$
28_
XXILIB    08252103423D 0   0.00000     0.00000

 36 38  0     1  0            999 V2000
  -10.3520    4.5197    3.9105 O   0  0  0  0  0  2           0  0  0
  -10.1132   -0.1747    3.9322 O   0  0  0  0  0  2           0  0  0
   -7.0671   -1.0646    4.0909 O   0  0  0  0  0  2           0  0  0
   -7.3630    3.4122    4.0588 N   0  0  0  0  0  3           0  0  0
   -6.4327    2.4284    4.1059 N   0  0  0  0  0  3           0  0  0
  -10.6853    2.1504    3.9008 N   0  0  2  0  0  3           0  0  0
   -8.6134    2.9184    4.0003 C   0  0  0  0  0  4           0  0  0
   -7.1449    1.2789    4.0766 C   0  0  0  0  0  4           0  0  0
  -12.1001    2.0770    3.8294 C   0  0  0  0  0  4           0  0  0
   -8.5149    1.5621    4.0096 C   0  0  0  0  0  4           0  0  0
  -14.2419    3.0146    3.1048 C   0  0  0  0  0  4           0  0  0
  -12.8418    3.0817    3.1831 C   0  0  0  0  0  4           0  0  0
  -12.7941    1.0021    4.4063 C   0  0  0  0  0  4           0  0  0
  -14.9091    1.9396    3.6990 C   0  0  0  0  0  4           0  0  0
  -14.1876    0.9368    4.3423 C   0  0  0  0  0  4           0  0  0
   -9.9644    3.3629    3.9323 C   0  0  0  0  0  4           0  0  0
   -9.8431    1.0149    3.9455 C   0  0  0  0  0  4           0  0  0
   -6.4504   -0.0000    4.1160 C   0  0  0  0  0  4           0  0  0
  -15.0178    4.1189    2.4509 C   0  0  0  0  0  4           0  0  0
   -4.9386    0.0000    4.1775 C   0  0  0  0  0  4           0  0  0
   -4.3108    0.0000    2.7850 C   0  0  0  0  0  4           0  0  0
   -2.7833    0.0000    2.7850 C   0  0  0  0  0  4           0  0  0
   -2.1554    0.0000    1.3925 C   0  0  0  0  0  4           0  0  0
   -0.6279    0.0000    1.3925 C   0  0  0  0  0  4           0  0  0
    0.0000   -0.0000    0.0000 C   0  0  0  0  0  4           0  0  0
    1.5275   -0.0000   -0.0000 C   0  0  0  0  0  4           0  0  0
    2.1554    0.0000   -1.3925 C   0  0  0  0  0  4           0  0  0
    3.6829    0.0000   -1.3925 C   0  0  0  0  0  4           0  0  0
    4.3108    0.0000   -2.7850 C   0  0  0  0  0  4           0  0  0
    5.8383    0.0000   -2.7850 C   0  0  0  0  0  4           0  0  0
    6.4661    0.0000   -4.1775 C   0  0  0  0  0  4           0  0  0
    7.9937    0.0000   -4.1775 C   0  0  0  0  0  4           0  0  0
    8.6215    0.0000   -5.5700 C   0  0  0  0  0  4           0  0  0
   10.1490    0.0000   -5.5700 C   0  0  0  0  0  4           0  0  0
   10.7769    0.0000   -6.9625 C   0  0  0  0  0  4           0  0  0
   12.2949    0.0000   -6.8879 C   0  0  0  0  0  4           0  0  0
  1 16  2  0     0  0
  2 17  2  0     0  0
  3 18  2  0     0  0
  4  5  1  0     0  0
  4  7  1  0     0  0
  5  8  2  0     0  0
  6  9  1  0     0  0
  6 16  1  0     0  0
  6 17  1  0     0  0
  7 10  2  0     0  0
  7 16  1  0     0  0
  8 10  1  0     0  0
  8 18  1  0     0  0
  9 12  2  0     0  0
  9 13  1  0     0  0
 10 17  1  0     0  0
 11 12  1  0     0  0
 11 14  2  0     0  0
 11 19  1  0     0  0
 13 15  2  0     0  0
 14 15  1  0     0  0
 18 20  1  0     0  0
 20 21  1  0     0  0
 21 22  1  0     0  0
 22 23  1  0     0  0
 23 24  1  0     0  0
 24 25  1  0     0  0
 25 26  1  0     0  0
 26 27  1  0     0  0
 27 28  1  0     0  0
 28 29  1  0     0  0
 29 30  1  0     0  0
 30 31  1  0     0  0
 31 32  1  0     0  0
 32 33  1  0     0  0
 33 34  1  0     0  0
 34 35  1  0     0  0
 35 36  1  0     0  0
M  END
> <standard_type>
pIC50

> <# Confs.>
25

> <canonical_smiles>
O=C1C2=C(C(C(CCCCCCCCCCCCCCCCC)=O)=NN2)C(N1C3=CC(C)=CC=C3)=O

> <standard_relation>
=

> <predicted_activity_value>
5.424812155072339

> <actual_activity_value>
5.585026652029182

> <Compound>
28

> <publication_ID>
nan

> <standard_units>
nM

> hash
11261695283669028271

$$$$
28_
XXILIB    08252103423D 0   0.00000     0.00000

 36 38  0     1  0            999 V2000
  -10.5122    2.3002    7.8448 O   0  0  0  0  0  2           0  0  0
  -10.1077   -0.0573    3.7983 O   0  0  0  0  0  2           0  0  0
   -7.0296   -0.5323    3.1697 O   0  0  0  0  0  2           0  0  0
   -7.4836    1.7234    7.0214 N   0  0  0  0  0  3           0  0  0
   -6.5184    1.2235    6.2126 N   0  0  0  0  0  3           0  0  0
  -10.7619    1.1122    5.7829 N   0  0  2  0  0  3           0  0  0
   -8.7168    1.4831    6.5394 C   0  0  0  0  0  4           0  0  0
   -7.1901    0.6491    5.1887 C   0  0  0  0  0  4           0  0  0
  -12.1744    1.0875    5.6548 C   0  0  0  0  0  4           0  0  0
   -8.5704    0.8004    5.3725 C   0  0  0  0  0  4           0  0  0
  -14.3622    2.1078    6.0598 C   0  0  0  0  0  4           0  0  0
  -12.9640    2.1229    6.1855 C   0  0  0  0  0  4           0  0  0
  -12.8182    0.0264    4.9996 C   0  0  0  0  0  4           0  0  0
  -14.9789    1.0326    5.4136 C   0  0  0  0  0  4           0  0  0
  -14.2096    0.0000    4.8827 C   0  0  0  0  0  4           0  0  0
  -10.0837    1.7166    6.8625 C   0  0  0  0  0  4           0  0  0
   -9.8795    0.5354    4.8398 C   0  0  0  0  0  4           0  0  0
   -6.4504   -0.0000    4.1160 C   0  0  0  0  0  4           0  0  0
  -15.1896    3.1985    6.6721 C   0  0  0  0  0  4           0  0  0
   -4.9386    0.0000    4.1775 C   0  0  0  0  0  4           0  0  0
   -4.3108    0.0000    2.7850 C   0  0  0  0  0  4           0  0  0
   -2.7833    0.0000    2.7850 C   0  0  0  0  0  4           0  0  0
   -2.1554    0.0000    1.3925 C   0  0  0  0  0  4           0  0  0
   -0.6279    0.0000    1.3925 C   0  0  0  0  0  4           0  0  0
    0.0000   -0.0000    0.0000 C   0  0  0  0  0  4           0  0  0
    1.5275   -0.0000   -0.0000 C   0  0  0  0  0  4           0  0  0
    2.1554    0.0000   -1.3925 C   0  0  0  0  0  4           0  0  0
    3.6829    0.0000   -1.3925 C   0  0  0  0  0  4           0  0  0
    4.3108    0.0000   -2.7850 C   0  0  0  0  0  4           0  0  0
    5.8383    0.0000   -2.7850 C   0  0  0  0  0  4           0  0  0
    6.4661    0.0000   -4.1775 C   0  0  0  0  0  4           0  0  0
    7.9937    0.0000   -4.1775 C   0  0  0  0  0  4           0  0  0
    8.6215    0.0000   -5.5700 C   0  0  0  0  0  4           0  0  0
   10.1490    0.0000   -5.5700 C   0  0  0  0  0  4           0  0  0
   10.7769    0.0000   -6.9625 C   0  0  0  0  0  4           0  0  0
   12.2949    0.0000   -6.8879 C   0  0  0  0  0  4           0  0  0
  1 16  2  0     0  0
  2 17  2  0     0  0
  3 18  2  0     0  0
  4  5  1  0     0  0
  4  7  1  0     0  0
  5  8  2  0     0  0
  6  9  1  0     0  0
  6 16  1  0     0  0
  6 17  1  0     0  0
  7 10  2  0     0  0
  7 16  1  0     0  0
  8 10  1  0     0  0
  8 18  1  0     0  0
  9 12  2  0     0  0
  9 13  1  0     0  0
 10 17  1  0     0  0
 11 12  1  0     0  0
 11 14  2  0     0  0
 11 19  1  0     0  0
 13 15  2  0     0  0
 14 15  1  0     0  0
 18 20  1  0     0  0
 20 21  1  0     0  0
 21 22  1  0     0  0
 22 23  1  0     0  0
 23 24  1  0     0  0
 24 25  1  0     0  0
 25 26  1  0     0  0
 26 27  1  0     0  0
 27 28  1  0     0  0
 28 29  1  0     0  0
 29 30  1  0     0  0
 30 31  1  0     0  0
 31 32  1  0     0  0
 32 33  1  0     0  0
 33 34  1  0     0  0
 34 35  1  0     0  0
 35 36  1  0     0  0
M  END
> <standard_type>
pIC50

> <# Confs.>
25

> <canonical_smiles>
O=C1C2=C(C(C(CCCCCCCCCCCCCCCCC)=O)=NN2)C(N1C3=CC(C)=CC=C3)=O

> <standard_relation>
=

> <predicted_activity_value>
5.424812155072339

> <actual_activity_value>
5.585026652029182

> <Compound>
28

> <publication_ID>
nan

> <standard_units>
nM

> hash
11261695283669028271

$$$$
28_
XXILIB    08252103423D 0   0.00000     0.00000

 36 38  0     1  0            999 V2000
   -7.0734    6.5985    5.4836 O   0  0  0  0  0  2           0  0  0
   -3.4252    4.0628    7.0183 O   0  0  0  0  0  2           0  0  0
   -3.5246    1.1790    5.6882 O   0  0  0  0  0  2           0  0  0
   -6.9901    3.6494    4.2676 N   0  0  0  0  0  3           0  0  0
   -6.4590    2.4122    4.1159 N   0  0  0  0  0  3           0  0  0
   -5.1110    5.6829    6.5012 N   0  0  2  0  0  3           0  0  0
   -6.2674    4.4056    5.1142 C   0  0  0  0  0  4           0  0  0
   -5.3598    2.4099    4.9041 C   0  0  0  0  0  4           0  0  0
   -4.6793    6.7796    7.2904 C   0  0  0  0  0  4           0  0  0
   -5.2203    3.6498    5.5405 C   0  0  0  0  0  4           0  0  0
   -3.5461    7.6510    9.2774 C   0  0  0  0  0  4           0  0  0
   -3.9801    6.5710    8.4925 C   0  0  0  0  0  4           0  0  0
   -4.9438    8.0994    6.8930 C   0  0  0  0  0  4           0  0  0
   -3.8339    8.9551    8.8650 C   0  0  0  0  0  4           0  0  0
   -4.5253    9.1772    7.6763 C   0  0  0  0  0  4           0  0  0
   -6.2613    5.7103    5.6846 C   0  0  0  0  0  4           0  0  0
   -4.4358    4.4411    6.4494 C   0  0  0  0  0  4           0  0  0
   -4.5313    1.2154    4.9813 C   0  0  0  0  0  4           0  0  0
   -2.8417    7.4068   10.5788 C   0  0  0  0  0  4           0  0  0
   -4.9386    0.0000    4.1775 C   0  0  0  0  0  4           0  0  0
   -4.3108    0.0000    2.7850 C   0  0  0  0  0  4           0  0  0
   -2.7833    0.0000    2.7850 C   0  0  0  0  0  4           0  0  0
   -2.1554    0.0000    1.3925 C   0  0  0  0  0  4           0  0  0
   -0.6279   -0.0000    1.3925 C   0  0  0  0  0  4           0  0  0
    0.0000    0.0000    0.0000 C   0  0  0  0  0  4           0  0  0
    1.5275   -0.0000   -0.0000 C   0  0  0  0  0  4           0  0  0
    2.1554    0.0000   -1.3925 C   0  0  0  0  0  4           0  0  0
    3.6829    0.0000   -1.3925 C   0  0  0  0  0  4           0  0  0
    4.3108    0.0000   -2.7850 C   0  0  0  0  0  4           0  0  0
    5.8383    0.0000   -2.7850 C   0  0  0  0  0  4           0  0  0
    6.4661    0.0000   -4.1775 C   0  0  0  0  0  4           0  0  0
    7.9937    0.0000   -4.1775 C   0  0  0  0  0  4           0  0  0
    8.6215    0.0000   -5.5700 C   0  0  0  0  0  4           0  0  0
   10.1490    0.0000   -5.5700 C   0  0  0  0  0  4           0  0  0
   10.7769    0.0000   -6.9625 C   0  0  0  0  0  4           0  0  0
   12.2949    0.0000   -6.8879 C   0  0  0  0  0  4           0  0  0
  1 16  2  0     0  0
  2 17  2  0     0  0
  3 18  2  0     0  0
  4  5  1  0     0  0
  4  7  1  0     0  0
  5  8  2  0     0  0
  6  9  1  0     0  0
  6 16  1  0     0  0
  6 17  1  0     0  0
  7 10  2  0     0  0
  7 16  1  0     0  0
  8 10  1  0     0  0
  8 18  1  0     0  0
  9 12  2  0     0  0
  9 13  1  0     0  0
 10 17  1  0     0  0
 11 12  1  0     0  0
 11 14  2  0     0  0
 11 19  1  0     0  0
 13 15  2  0     0  0
 14 15  1  0     0  0
 18 20  1  0     0  0
 20 21  1  0     0  0
 21 22  1  0     0  0
 22 23  1  0     0  0
 23 24  1  0     0  0
 24 25  1  0     0  0
 25 26  1  0     0  0
 26 27  1  0     0  0
 27 28  1  0     0  0
 28 29  1  0     0  0
 29 30  1  0     0  0
 30 31  1  0     0  0
 31 32  1  0     0  0
 32 33  1  0     0  0
 33 34  1  0     0  0
 34 35  1  0     0  0
 35 36  1  0     0  0
M  END
> <standard_type>
pIC50

> <# Confs.>
25

> <canonical_smiles>
O=C1C2=C(C(C(CCCCCCCCCCCCCCCCC)=O)=NN2)C(N1C3=CC(C)=CC=C3)=O

> <standard_relation>
=

> <predicted_activity_value>
5.424812155072339

> <actual_activity_value>
5.585026652029182

> <Compound>
28

> <publication_ID>
nan

> <standard_units>
nM

> hash
11261695283669028271

$$$$
28_
XXILIB    08252103423D 0   0.00000     0.00000

 36 38  0     1  0            999 V2000
   -7.0734    6.5985    5.4836 O   0  0  0  0  0  2           0  0  0
   -3.4252    4.0628    7.0183 O   0  0  0  0  0  2           0  0  0
   -3.5246    1.1790    5.6882 O   0  0  0  0  0  2           0  0  0
   -6.9901    3.6494    4.2676 N   0  0  0  0  0  3           0  0  0
   -6.4590    2.4122    4.1159 N   0  0  0  0  0  3           0  0  0
   -5.1110    5.6829    6.5012 N   0  0  2  0  0  3           0  0  0
   -6.2674    4.4056    5.1142 C   0  0  0  0  0  4           0  0  0
   -5.3598    2.4099    4.9041 C   0  0  0  0  0  4           0  0  0
   -4.6793    6.7796    7.2904 C   0  0  0  0  0  4           0  0  0
   -5.2203    3.6498    5.5405 C   0  0  0  0  0  4           0  0  0
   -4.5194    9.1930    7.6672 C   0  0  0  0  0  4           0  0  0
   -4.9400    8.1021    6.8900 C   0  0  0  0  0  4           0  0  0
   -3.9772    6.5713    8.4877 C   0  0  0  0  0  4           0  0  0
   -3.8108    8.9577    8.8488 C   0  0  0  0  0  4           0  0  0
   -3.5456    7.6530    9.2584 C   0  0  0  0  0  4           0  0  0
   -6.2613    5.7103    5.6846 C   0  0  0  0  0  4           0  0  0
   -4.4358    4.4411    6.4494 C   0  0  0  0  0  4           0  0  0
   -4.5313    1.2154    4.9813 C   0  0  0  0  0  4           0  0  0
   -4.7675   10.5963    7.2000 C   0  0  0  0  0  4           0  0  0
   -4.9386    0.0000    4.1775 C   0  0  0  0  0  4           0  0  0
   -4.3108    0.0000    2.7850 C   0  0  0  0  0  4           0  0  0
   -2.7833    0.0000    2.7850 C   0  0  0  0  0  4           0  0  0
   -2.1554    0.0000    1.3925 C   0  0  0  0  0  4           0  0  0
   -0.6279   -0.0000    1.3925 C   0  0  0  0  0  4           0  0  0
    0.0000    0.0000    0.0000 C   0  0  0  0  0  4           0  0  0
    1.5275   -0.0000   -0.0000 C   0  0  0  0  0  4           0  0  0
    2.1554    0.0000   -1.3925 C   0  0  0  0  0  4           0  0  0
    3.6829    0.0000   -1.3925 C   0  0  0  0  0  4           0  0  0
    4.3108    0.0000   -2.7850 C   0  0  0  0  0  4           0  0  0
    5.8383    0.0000   -2.7850 C   0  0  0  0  0  4           0  0  0
    6.4661    0.0000   -4.1775 C   0  0  0  0  0  4           0  0  0
    7.9937    0.0000   -4.1775 C   0  0  0  0  0  4           0  0  0
    8.6215    0.0000   -5.5700 C   0  0  0  0  0  4           0  0  0
   10.1490    0.0000   -5.5700 C   0  0  0  0  0  4           0  0  0
   10.7769    0.0000   -6.9625 C   0  0  0  0  0  4           0  0  0
   12.2949    0.0000   -6.8879 C   0  0  0  0  0  4           0  0  0
  1 16  2  0     0  0
  2 17  2  0     0  0
  3 18  2  0     0  0
  4  5  1  0     0  0
  4  7  1  0     0  0
  5  8  2  0     0  0
  6  9  1  0     0  0
  6 16  1  0     0  0
  6 17  1  0     0  0
  7 10  2  0     0  0
  7 16  1  0     0  0
  8 10  1  0     0  0
  8 18  1  0     0  0
  9 12  2  0     0  0
  9 13  1  0     0  0
 10 17  1  0     0  0
 11 12  1  0     0  0
 11 14  2  0     0  0
 11 19  1  0     0  0
 13 15  2  0     0  0
 14 15  1  0     0  0
 18 20  1  0     0  0
 20 21  1  0     0  0
 21 22  1  0     0  0
 22 23  1  0     0  0
 23 24  1  0     0  0
 24 25  1  0     0  0
 25 26  1  0     0  0
 26 27  1  0     0  0
 27 28  1  0     0  0
 28 29  1  0     0  0
 29 30  1  0     0  0
 30 31  1  0     0  0
 31 32  1  0     0  0
 32 33  1  0     0  0
 33 34  1  0     0  0
 34 35  1  0     0  0
 35 36  1  0     0  0
M  END
> <standard_type>
pIC50

> <# Confs.>
25

> <canonical_smiles>
O=C1C2=C(C(C(CCCCCCCCCCCCCCCCC)=O)=NN2)C(N1C3=CC(C)=CC=C3)=O

> <standard_relation>
=

> <predicted_activity_value>
5.424812155072339

> <actual_activity_value>
5.585026652029182

> <Compound>
28

> <publication_ID>
nan

> <standard_units>
nM

> hash
11261695283669028271

$$$$
28_
XXILIB    08252103423D 0   0.00000     0.00000

 36 38  0     1  0            999 V2000
   -7.0734    6.5985    5.4836 O   0  0  0  0  0  2           0  0  0
   -3.4252    4.0628    7.0183 O   0  0  0  0  0  2           0  0  0
   -3.5246    1.1790    5.6882 O   0  0  0  0  0  2           0  0  0
   -6.9901    3.6494    4.2676 N   0  0  0  0  0  3           0  0  0
   -6.4590    2.4122    4.1159 N   0  0  0  0  0  3           0  0  0
   -5.1110    5.6829    6.5012 N   0  0  2  0  0  3           0  0  0
   -6.2674    4.4056    5.1142 C   0  0  0  0  0  4           0  0  0
   -5.3598    2.4099    4.9041 C   0  0  0  0  0  4           0  0  0
   -4.6793    6.7796    7.2904 C   0  0  0  0  0  4           0  0  0
   -5.2203    3.6498    5.5405 C   0  0  0  0  0  4           0  0  0
   -2.8788    8.0588    8.3458 C   0  0  0  0  0  4           0  0  0
   -3.3147    6.9739    7.5687 C   0  0  0  0  0  4           0  0  0
   -5.6042    7.6947    7.8167 C   0  0  0  0  0  4           0  0  0
   -3.8221    8.9481    8.8683 C   0  0  0  0  0  4           0  0  0
   -5.1772    8.7686    8.6007 C   0  0  0  0  0  4           0  0  0
   -6.2613    5.7103    5.6846 C   0  0  0  0  0  4           0  0  0
   -4.4358    4.4411    6.4494 C   0  0  0  0  0  4           0  0  0
   -4.5313    1.2154    4.9813 C   0  0  0  0  0  4           0  0  0
   -1.4235    8.2228    8.6690 C   0  0  0  0  0  4           0  0  0
   -4.9386    0.0000    4.1775 C   0  0  0  0  0  4           0  0  0
   -4.3108    0.0000    2.7850 C   0  0  0  0  0  4           0  0  0
   -2.7833    0.0000    2.7850 C   0  0  0  0  0  4           0  0  0
   -2.1554    0.0000    1.3925 C   0  0  0  0  0  4           0  0  0
   -0.6279   -0.0000    1.3925 C   0  0  0  0  0  4           0  0  0
    0.0000    0.0000    0.0000 C   0  0  0  0  0  4           0  0  0
    1.5275   -0.0000   -0.0000 C   0  0  0  0  0  4           0  0  0
    2.1554    0.0000   -1.3925 C   0  0  0  0  0  4           0  0  0
    3.6829    0.0000   -1.3925 C   0  0  0  0  0  4           0  0  0
    4.3108    0.0000   -2.7850 C   0  0  0  0  0  4           0  0  0
    5.8383    0.0000   -2.7850 C   0  0  0  0  0  4           0  0  0
    6.4661    0.0000   -4.1775 C   0  0  0  0  0  4           0  0  0
    7.9937    0.0000   -4.1775 C   0  0  0  0  0  4           0  0  0
    8.6215    0.0000   -5.5700 C   0  0  0  0  0  4           0  0  0
   10.1490    0.0000   -5.5700 C   0  0  0  0  0  4           0  0  0
   10.7769    0.0000   -6.9625 C   0  0  0  0  0  4           0  0  0
   12.2949    0.0000   -6.8879 C   0  0  0  0  0  4           0  0  0
  1 16  2  0     0  0
  2 17  2  0     0  0
  3 18  2  0     0  0
  4  5  1  0     0  0
  4  7  1  0     0  0
  5  8  2  0     0  0
  6  9  1  0     0  0
  6 16  1  0     0  0
  6 17  1  0     0  0
  7 10  2  0     0  0
  7 16  1  0     0  0
  8 10  1  0     0  0
  8 18  1  0     0  0
  9 12  2  0     0  0
  9 13  1  0     0  0
 10 17  1  0     0  0
 11 12  1  0     0  0
 11 14  2  0     0  0
 11 19  1  0     0  0
 13 15  2  0     0  0
 14 15  1  0     0  0
 18 20  1  0     0  0
 20 21  1  0     0  0
 21 22  1  0     0  0
 22 23  1  0     0  0
 23 24  1  0     0  0
 24 25  1  0     0  0
 25 26  1  0     0  0
 26 27  1  0     0  0
 27 28  1  0     0  0
 28 29  1  0     0  0
 29 30  1  0     0  0
 30 31  1  0     0  0
 31 32  1  0     0  0
 32 33  1  0     0  0
 33 34  1  0     0  0
 34 35  1  0     0  0
 35 36  1  0     0  0
M  END
> <standard_type>
pIC50

> <# Confs.>
25

> <canonical_smiles>
O=C1C2=C(C(C(CCCCCCCCCCCCCCCCC)=O)=NN2)C(N1C3=CC(C)=CC=C3)=O

> <standard_relation>
=

> <predicted_activity_value>
5.424812155072339

> <actual_activity_value>
5.585026652029182

> <Compound>
28

> <publication_ID>
nan

> <standard_units>
nM

> hash
11261695283669028271

$$$$
28_
XXILIB    08252103423D 0   0.00000     0.00000

 36 38  0     1  0            999 V2000
  -10.5377    0.0466    8.4731 O   0  0  0  0  0  2           0  0  0
  -10.1075    0.0347    3.7923 O   0  0  0  0  0  2           0  0  0
   -7.0238   -0.0000    3.0271 O   0  0  0  0  0  2           0  0  0
   -7.5026    0.0200    7.4882 N   0  0  0  0  0  3           0  0  0
   -6.5319    0.0108    6.5430 N   0  0  0  0  0  3           0  0  0
  -10.7745    0.0428    6.0921 N   0  0  2  0  0  3           0  0  0
   -8.7333    0.0276    6.9439 C   0  0  0  0  0  4           0  0  0
   -7.1973    0.0111    5.3655 C   0  0  0  0  0  4           0  0  0
  -12.1869    0.0566    5.9611 C   0  0  0  0  0  4           0  0  0
   -8.5794    0.0223    5.5927 C   0  0  0  0  0  4           0  0  0
  -14.2109   -0.5390    4.7202 C   0  0  0  0  0  4           0  0  0
  -12.8136   -0.5450    4.8554 C   0  0  0  0  0  4           0  0  0
  -12.9925    0.6752    6.9296 C   0  0  0  0  0  4           0  0  0
  -14.9892    0.0953    5.6928 C   0  0  0  0  0  4           0  0  0
  -14.3823    0.6950    6.7937 C   0  0  0  0  0  4           0  0  0
  -10.1029    0.0405    7.3329 C   0  0  0  0  0  4           0  0  0
   -9.8857    0.0323    4.9918 C   0  0  0  0  0  4           0  0  0
   -6.4504   -0.0000    4.1160 C   0  0  0  0  0  4           0  0  0
  -14.8576   -1.1463    3.5110 C   0  0  0  0  0  4           0  0  0
   -4.9386    0.0000    4.1775 C   0  0  0  0  0  4           0  0  0
   -4.3108    0.0000    2.7850 C   0  0  0  0  0  4           0  0  0
   -2.7833    0.0000    2.7850 C   0  0  0  0  0  4           0  0  0
   -2.1554    0.0000    1.3925 C   0  0  0  0  0  4           0  0  0
   -0.6279    0.0000    1.3925 C   0  0  0  0  0  4           0  0  0
    0.0000   -0.0000    0.0000 C   0  0  0  0  0  4           0  0  0
    1.5275   -0.0000   -0.0000 C   0  0  0  0  0  4           0  0  0
    2.1554    0.0000   -1.3925 C   0  0  0  0  0  4           0  0  0
    3.6829    0.0000   -1.3925 C   0  0  0  0  0  4           0  0  0
    4.3108    0.0000   -2.7850 C   0  0  0  0  0  4           0  0  0
    5.8383    0.0000   -2.7850 C   0  0  0  0  0  4           0  0  0
    6.4661    0.0000   -4.1775 C   0  0  0  0  0  4           0  0  0
    7.9937    0.0000   -4.1775 C   0  0  0  0  0  4           0  0  0
    8.6215    0.0000   -5.5700 C   0  0  0  0  0  4           0  0  0
   10.1490    0.0000   -5.5700 C   0  0  0  0  0  4           0  0  0
   10.7769    1.2059   -4.8738 C   0  0  0  0  0  4           0  0  0
   12.2949    1.1413   -4.9111 C   0  0  0  0  0  4           0  0  0
  1 16  2  0     0  0
  2 17  2  0     0  0
  3 18  2  0     0  0
  4  5  1  0     0  0
  4  7  1  0     0  0
  5  8  2  0     0  0
  6  9  1  0     0  0
  6 16  1  0     0  0
  6 17  1  0     0  0
  7 10  2  0     0  0
  7 16  1  0     0  0
  8 10  1  0     0  0
  8 18  1  0     0  0
  9 12  2  0     0  0
  9 13  1  0     0  0
 10 17  1  0     0  0
 11 12  1  0     0  0
 11 14  2  0     0  0
 11 19  1  0     0  0
 13 15  2  0     0  0
 14 15  1  0     0  0
 18 20  1  0     0  0
 20 21  1  0     0  0
 21 22  1  0     0  0
 22 23  1  0     0  0
 23 24  1  0     0  0
 24 25  1  0     0  0
 25 26  1  0     0  0
 26 27  1  0     0  0
 27 28  1  0     0  0
 28 29  1  0     0  0
 29 30  1  0     0  0
 30 31  1  0     0  0
 31 32  1  0     0  0
 32 33  1  0     0  0
 33 34  1  0     0  0
 34 35  1  0     0  0
 35 36  1  0     0  0
M  END
> <standard_type>
pIC50

> <# Confs.>
25

> <canonical_smiles>
O=C1C2=C(C(C(CCCCCCCCCCCCCCCCC)=O)=NN2)C(N1C3=CC(C)=CC=C3)=O

> <standard_relation>
=

> <predicted_activity_value>
5.424812155072339

> <actual_activity_value>
5.585026652029182

> <Compound>
28

> <publication_ID>
nan

> <standard_units>
nM

> hash
11261695283669028271

$$$$
28_
XXILIB    08252103423D 0   0.00000     0.00000

 36 38  0     1  0            999 V2000
   -2.1274    5.2799   12.2652 O   0  0  0  0  0  2           0  0  0
    0.3880    6.6124    8.5246 O   0  0  0  0  0  2           0  0  0
    0.0304    4.4676    6.2078 O   0  0  0  0  0  2           0  0  0
   -2.3432    3.2476    9.8145 N   0  0  0  0  0  3           0  0  0
   -2.0586    2.8223    8.5600 N   0  0  0  0  0  3           0  0  0
   -0.7337    6.3163   10.6194 N   0  0  2  0  0  3           0  0  0
   -1.7278    4.4092   10.1026 C   0  0  0  0  0  4           0  0  0
   -1.2323    3.7667    8.0550 C   0  0  0  0  0  4           0  0  0
   -0.3010    7.4711   11.3203 C   0  0  0  0  0  4           0  0  0
   -1.0105    4.7713    9.0055 C   0  0  0  0  0  4           0  0  0
    1.3871    9.1934   11.7393 C   0  0  0  0  0  4           0  0  0
    0.9529    8.0484   11.0527 C   0  0  0  0  0  4           0  0  0
   -1.1120    8.0624   12.3014 C   0  0  0  0  0  4           0  0  0
    0.5651    9.7548   12.7206 C   0  0  0  0  0  4           0  0  0
   -0.6798    9.1941   12.9962 C   0  0  0  0  0  4           0  0  0
   -1.5985    5.3454   11.1675 C   0  0  0  0  0  4           0  0  0
   -0.3427    6.0115    9.2947 C   0  0  0  0  0  4           0  0  0
   -0.7230    3.6273    6.6984 C   0  0  0  0  0  4           0  0  0
    2.7466    9.7673   11.4715 C   0  0  0  0  0  4           0  0  0
   -1.1303    2.4119    5.8946 C   0  0  0  0  0  4           0  0  0
   -0.5025    2.4119    4.5021 C   0  0  0  0  0  4           0  0  0
   -0.8791    1.2059    3.6436 C   0  0  0  0  0  4           0  0  0
   -0.2512    1.2059    2.2511 C   0  0  0  0  0  4           0  0  0
   -0.6279   -0.0000    1.3925 C   0  0  0  0  0  4           0  0  0
    0.0000    0.0000    0.0000 C   0  0  0  0  0  4           0  0  0
    1.5275   -0.0000   -0.0000 C   0  0  0  0  0  4           0  0  0
    2.1554    0.0000   -1.3925 C   0  0  0  0  0  4           0  0  0
    3.6829    0.0000   -1.3925 C   0  0  0  0  0  4           0  0  0
    4.3108    0.0000   -2.7850 C   0  0  0  0  0  4           0  0  0
    5.8383    0.0000   -2.7850 C   0  0  0  0  0  4           0  0  0
    6.4661    0.0000   -4.1775 C   0  0  0  0  0  4           0  0  0
    7.9937    0.0000   -4.1775 C   0  0  0  0  0  4           0  0  0
    8.6215    0.0000   -5.5700 C   0  0  0  0  0  4           0  0  0
   10.1490    0.0000   -5.5700 C   0  0  0  0  0  4           0  0  0
   10.7769    0.0000   -6.9625 C   0  0  0  0  0  4           0  0  0
   12.2949    0.0000   -6.8879 C   0  0  0  0  0  4           0  0  0
  1 16  2  0     0  0
  2 17  2  0     0  0
  3 18  2  0     0  0
  4  5  1  0     0  0
  4  7  1  0     0  0
  5  8  2  0     0  0
  6  9  1  0     0  0
  6 16  1  0     0  0
  6 17  1  0     0  0
  7 10  2  0     0  0
  7 16  1  0     0  0
  8 10  1  0     0  0
  8 18  1  0     0  0
  9 12  2  0     0  0
  9 13  1  0     0  0
 10 17  1  0     0  0
 11 12  1  0     0  0
 11 14  2  0     0  0
 11 19  1  0     0  0
 13 15  2  0     0  0
 14 15  1  0     0  0
 18 20  1  0     0  0
 20 21  1  0     0  0
 21 22  1  0     0  0
 22 23  1  0     0  0
 23 24  1  0     0  0
 24 25  1  0     0  0
 25 26  1  0     0  0
 26 27  1  0     0  0
 27 28  1  0     0  0
 28 29  1  0     0  0
 29 30  1  0     0  0
 30 31  1  0     0  0
 31 32  1  0     0  0
 32 33  1  0     0  0
 33 34  1  0     0  0
 34 35  1  0     0  0
 35 36  1  0     0  0
M  END
> <standard_type>
pIC50

> <# Confs.>
25

> <canonical_smiles>
O=C1C2=C(C(C(CCCCCCCCCCCCCCCCC)=O)=NN2)C(N1C3=CC(C)=CC=C3)=O

> <standard_relation>
=

> <predicted_activity_value>
5.424812155072339

> <actual_activity_value>
5.585026652029182

> <Compound>
28

> <publication_ID>
nan

> <standard_units>
nM

> hash
11261695283669028271

$$$$
28_
XXILIB    08252103423D 0   0.00000     0.00000

 36 38  0     1  0            999 V2000
  -10.5377    0.0466    8.4731 O   0  0  0  0  0  2           0  0  0
  -10.1075    0.0347    3.7923 O   0  0  0  0  0  2           0  0  0
   -7.0238   -0.0000    3.0271 O   0  0  0  0  0  2           0  0  0
   -7.5026    0.0200    7.4882 N   0  0  0  0  0  3           0  0  0
   -6.5319    0.0108    6.5430 N   0  0  0  0  0  3           0  0  0
  -10.7745    0.0428    6.0921 N   0  0  2  0  0  3           0  0  0
   -8.7333    0.0276    6.9439 C   0  0  0  0  0  4           0  0  0
   -7.1973    0.0111    5.3655 C   0  0  0  0  0  4           0  0  0
  -12.1869    0.0566    5.9611 C   0  0  0  0  0  4           0  0  0
   -8.5794    0.0223    5.5927 C   0  0  0  0  0  4           0  0  0
  -14.1983    0.6772    4.7120 C   0  0  0  0  0  4           0  0  0
  -12.8014    0.6626    4.8510 C   0  0  0  0  0  4           0  0  0
  -13.0052   -0.5301    6.9388 C   0  0  0  0  0  4           0  0  0
  -14.9905    0.0969    5.7067 C   0  0  0  0  0  4           0  0  0
  -14.3957   -0.5074    6.8118 C   0  0  0  0  0  4           0  0  0
  -10.1029    0.0405    7.3329 C   0  0  0  0  0  4           0  0  0
   -9.8857    0.0323    4.9918 C   0  0  0  0  0  4           0  0  0
   -6.4504   -0.0000    4.1160 C   0  0  0  0  0  4           0  0  0
  -14.8361    1.3682    3.5437 C   0  0  0  0  0  4           0  0  0
   -4.9386    0.0000    4.1775 C   0  0  0  0  0  4           0  0  0
   -4.3108    0.0000    2.7850 C   0  0  0  0  0  4           0  0  0
   -2.7833    0.0000    2.7850 C   0  0  0  0  0  4           0  0  0
   -2.1554    0.0000    1.3925 C   0  0  0  0  0  4           0  0  0
   -0.6279    0.0000    1.3925 C   0  0  0  0  0  4           0  0  0
    0.0000   -0.0000    0.0000 C   0  0  0  0  0  4           0  0  0
    1.5275    0.0000    0.0000 C   0  0  0  0  0  4           0  0  0
    2.1554   -1.2059    0.6963 C   0  0  0  0  0  4           0  0  0
    3.6829   -1.2059    0.6963 C   0  0  0  0  0  4           0  0  0
    4.3108   -2.4119    1.3925 C   0  0  0  0  0  4           0  0  0
    5.8383   -2.4119    1.3925 C   0  0  0  0  0  4           0  0  0
    6.4661   -3.6178    2.0888 C   0  0  0  0  0  4           0  0  0
    7.9937   -3.6178    2.0888 C   0  0  0  0  0  4           0  0  0
    8.6215   -4.8238    2.7850 C   0  0  0  0  0  4           0  0  0
   10.1490   -4.8238    2.7850 C   0  0  0  0  0  4           0  0  0
   10.7769   -6.0297    3.4813 C   0  0  0  0  0  4           0  0  0
   12.2949   -5.9651    3.4440 C   0  0  0  0  0  4           0  0  0
  1 16  2  0     0  0
  2 17  2  0     0  0
  3 18  2  0     0  0
  4  5  1  0     0  0
  4  7  1  0     0  0
  5  8  2  0     0  0
  6  9  1  0     0  0
  6 16  1  0     0  0
  6 17  1  0     0  0
  7 10  2  0     0  0
  7 16  1  0     0  0
  8 10  1  0     0  0
  8 18  1  0     0  0
  9 12  2  0     0  0
  9 13  1  0     0  0
 10 17  1  0     0  0
 11 12  1  0     0  0
 11 14  2  0     0  0
 11 19  1  0     0  0
 13 15  2  0     0  0
 14 15  1  0     0  0
 18 20  1  0     0  0
 20 21  1  0     0  0
 21 22  1  0     0  0
 22 23  1  0     0  0
 23 24  1  0     0  0
 24 25  1  0     0  0
 25 26  1  0     0  0
 26 27  1  0     0  0
 27 28  1  0     0  0
 28 29  1  0     0  0
 29 30  1  0     0  0
 30 31  1  0     0  0
 31 32  1  0     0  0
 32 33  1  0     0  0
 33 34  1  0     0  0
 34 35  1  0     0  0
 35 36  1  0     0  0
M  END
> <standard_type>
pIC50

> <# Confs.>
25

> <canonical_smiles>
O=C1C2=C(C(C(CCCCCCCCCCCCCCCCC)=O)=NN2)C(N1C3=CC(C)=CC=C3)=O

> <standard_relation>
=

> <predicted_activity_value>
5.424812155072339

> <actual_activity_value>
5.585026652029182

> <Compound>
28

> <publication_ID>
nan

> <standard_units>
nM

> hash
11261695283669028271

$$$$
28_
XXILIB    08252103423D 0   0.00000     0.00000

 36 38  0     1  0            999 V2000
  -10.5377    0.0466    8.4731 O   0  0  0  0  0  2           0  0  0
  -10.1075    0.0347    3.7923 O   0  0  0  0  0  2           0  0  0
   -7.0238   -0.0000    3.0271 O   0  0  0  0  0  2           0  0  0
   -7.5026    0.0200    7.4882 N   0  0  0  0  0  3           0  0  0
   -6.5319    0.0108    6.5430 N   0  0  0  0  0  3           0  0  0
  -10.7745    0.0428    6.0921 N   0  0  2  0  0  3           0  0  0
   -8.7333    0.0276    6.9439 C   0  0  0  0  0  4           0  0  0
   -7.1973    0.0111    5.3655 C   0  0  0  0  0  4           0  0  0
  -12.1869    0.0566    5.9611 C   0  0  0  0  0  4           0  0  0
   -8.5794    0.0223    5.5927 C   0  0  0  0  0  4           0  0  0
  -14.1983    0.6772    4.7120 C   0  0  0  0  0  4           0  0  0
  -12.8014    0.6626    4.8510 C   0  0  0  0  0  4           0  0  0
  -13.0052   -0.5301    6.9388 C   0  0  0  0  0  4           0  0  0
  -14.9905    0.0969    5.7067 C   0  0  0  0  0  4           0  0  0
  -14.3957   -0.5074    6.8118 C   0  0  0  0  0  4           0  0  0
  -10.1029    0.0405    7.3329 C   0  0  0  0  0  4           0  0  0
   -9.8857    0.0323    4.9918 C   0  0  0  0  0  4           0  0  0
   -6.4504   -0.0000    4.1160 C   0  0  0  0  0  4           0  0  0
  -14.8361    1.3682    3.5437 C   0  0  0  0  0  4           0  0  0
   -4.9386    0.0000    4.1775 C   0  0  0  0  0  4           0  0  0
   -4.3108    0.0000    2.7850 C   0  0  0  0  0  4           0  0  0
   -2.7833    0.0000    2.7850 C   0  0  0  0  0  4           0  0  0
   -2.1554    0.0000    1.3925 C   0  0  0  0  0  4           0  0  0
   -0.6279    0.0000    1.3925 C   0  0  0  0  0  4           0  0  0
    0.0000   -0.0000    0.0000 C   0  0  0  0  0  4           0  0  0
    1.5275    0.0000    0.0000 C   0  0  0  0  0  4           0  0  0
    2.1554    0.0000   -1.3925 C   0  0  0  0  0  4           0  0  0
    1.7787    1.2059   -2.2511 C   0  0  0  0  0  4           0  0  0
    2.4066    1.2059   -3.6436 C   0  0  0  0  0  4           0  0  0
    2.0300    2.4119   -4.5021 C   0  0  0  0  0  4           0  0  0
    2.6578    2.4119   -5.8946 C   0  0  0  0  0  4           0  0  0
    2.2812    3.6178   -6.7532 C   0  0  0  0  0  4           0  0  0
    2.9091    3.6178   -8.1457 C   0  0  0  0  0  4           0  0  0
    2.5324    4.8238   -9.0043 C   0  0  0  0  0  4           0  0  0
    3.1603    4.8238  -10.3968 C   0  0  0  0  0  4           0  0  0
    2.7441    6.0488  -11.1943 C   0  0  0  0  0  4           0  0  0
  1 16  2  0     0  0
  2 17  2  0     0  0
  3 18  2  0     0  0
  4  5  1  0     0  0
  4  7  1  0     0  0
  5  8  2  0     0  0
  6  9  1  0     0  0
  6 16  1  0     0  0
  6 17  1  0     0  0
  7 10  2  0     0  0
  7 16  1  0     0  0
  8 10  1  0     0  0
  8 18  1  0     0  0
  9 12  2  0     0  0
  9 13  1  0     0  0
 10 17  1  0     0  0
 11 12  1  0     0  0
 11 14  2  0     0  0
 11 19  1  0     0  0
 13 15  2  0     0  0
 14 15  1  0     0  0
 18 20  1  0     0  0
 20 21  1  0     0  0
 21 22  1  0     0  0
 22 23  1  0     0  0
 23 24  1  0     0  0
 24 25  1  0     0  0
 25 26  1  0     0  0
 26 27  1  0     0  0
 27 28  1  0     0  0
 28 29  1  0     0  0
 29 30  1  0     0  0
 30 31  1  0     0  0
 31 32  1  0     0  0
 32 33  1  0     0  0
 33 34  1  0     0  0
 34 35  1  0     0  0
 35 36  1  0     0  0
M  END
> <standard_type>
pIC50

> <# Confs.>
25

> <canonical_smiles>
O=C1C2=C(C(C(CCCCCCCCCCCCCCCCC)=O)=NN2)C(N1C3=CC(C)=CC=C3)=O

> <standard_relation>
=

> <predicted_activity_value>
5.424812155072339

> <actual_activity_value>
5.585026652029182

> <Compound>
28

> <publication_ID>
nan

> <standard_units>
nM

> hash
11261695283669028271

$$$$
27_
XXILIB    08252103423D 0   0.00000     0.00000

 26 26  0     1  0            999 V2000
    8.4675    0.0143   -2.0758 O   0  0  0  0  0  2           0  0  0
    5.6077    0.0000   -5.2222 O   0  0  0  0  0  2           0  0  0
   10.0356    0.0020   -3.7474 O   0  0  0  0  0  2           0  0  0
    8.1856   -0.0463   -6.7936 O   0  0  0  0  0  2           0  0  0
   10.0826    2.4675   -5.1684 O   0  0  0  0  0  2           0  0  0
    8.7608    0.0103   -3.2595 C   0  0  0  0  0  4           0  0  0
    6.3241   -0.0000   -4.2216 C   0  0  0  0  0  4           0  0  0
    8.5581    0.0090   -5.4830 C   0  0  0  0  0  4           0  0  0
   10.0054    0.0311   -5.1808 C   0  0  1  0  0  4           0  0  0
   10.7139    1.2909   -5.6635 C   0  0  0  0  0  4           0  0  0
    7.7995    0.0093   -4.3834 C   0  0  0  0  0  4           0  0  0
    5.7546   -0.0000   -2.8157 C   0  0  0  0  0  4           0  0  0
    4.2286    0.0000   -2.8157 C   0  0  0  0  0  4           0  0  0
    3.6402   -0.0000   -1.4079 C   0  0  0  0  0  4           0  0  0
    2.1143    0.0000   -1.4079 C   0  0  0  0  0  4           0  0  0
    1.5259   -0.0000   -0.0000 C   0  0  0  0  0  4           0  0  0
    0.0000    0.0000    0.0000 C   0  0  0  0  0  4           0  0  0
   -0.5884    0.0000    1.4079 C   0  0  0  0  0  4           0  0  0
   -2.1143   -0.0000    1.4079 C   0  0  0  0  0  4           0  0  0
   -2.7027   -0.0000    2.8157 C   0  0  0  0  0  4           0  0  0
   -4.2286   -0.0000    2.8157 C   0  0  0  0  0  4           0  0  0
   -4.8170   -0.0000    4.2236 C   0  0  0  0  0  4           0  0  0
   -6.3429   -0.0000    4.2236 C   0  0  0  0  0  4           0  0  0
   -6.9313   -0.0000    5.6314 C   0  0  0  0  0  4           0  0  0
   -8.4572   -0.0000    5.6314 C   0  0  0  0  0  4           0  0  0
   -9.0528   -0.0000    7.0314 C   0  0  0  0  0  4           0  0  0
  1  6  2  0     0  0
  2  7  2  0     0  0
  3  6  1  0     0  0
  3  9  1  0     0  0
  4  8  1  0     0  0
  5 10  1  0     0  0
  6 11  1  0     0  0
  7 11  1  0     0  0
  7 12  1  0     0  0
  8  9  1  0     0  0
  8 11  2  0     0  0
  9 10  1  0     0  0
 12 13  1  0     0  0
 13 14  1  0     0  0
 14 15  1  0     0  0
 15 16  1  0     0  0
 16 17  1  0     0  0
 17 18  1  0     0  0
 18 19  1  0     0  0
 19 20  1  0     0  0
 20 21  1  0     0  0
 21 22  1  0     0  0
 22 23  1  0     0  0
 23 24  1  0     0  0
 24 25  1  0     0  0
 25 26  1  0     0  0
M  END
> <standard_type>
pIC50

> <# Confs.>
25

> <canonical_smiles>
O=C1C(C(CCCCCCCCCCCCCCC)=O)=C(O)[C@@H](CO)O1

> <standard_relation>
=

> <predicted_activity_value>
5.424812155072339

> <actual_activity_value>
5.657577319177793

> <Compound>
27

> <publication_ID>
nan

> <standard_units>
nM

> hash
13892040024061748084

$$$$
27_
XXILIB    08252103423D 0   0.00000     0.00000

 26 26  0     1  0            999 V2000
    8.6534    0.3119   -2.3043 O   0  0  0  0  0  2           0  0  0
    5.7368   -0.5198   -5.1699 O   0  0  0  0  0  2           0  0  0
    9.7831    1.4048   -3.9724 O   0  0  0  0  0  2           0  0  0
    7.5714    1.4303   -6.7675 O   0  0  0  0  0  2           0  0  0
    8.6443    3.9543   -4.5231 O   0  0  0  0  0  2           0  0  0
    8.7087    0.7525   -3.4402 C   0  0  0  0  0  4           0  0  0
    6.3241   -0.0000   -4.2216 C   0  0  0  0  0  4           0  0  0
    8.1249    1.2745   -5.5310 C   0  0  0  0  0  4           0  0  0
    9.4869    1.8089   -5.3162 C   0  0  1  0  0  4           0  0  0
    9.5711    3.3278   -5.4043 C   0  0  0  0  0  4           0  0  0
    7.6329    0.6615   -4.4509 C   0  0  0  0  0  4           0  0  0
    5.7546   -0.0000   -2.8157 C   0  0  0  0  0  4           0  0  0
    4.2286    0.0000   -2.8157 C   0  0  0  0  0  4           0  0  0
    3.6402   -0.0000   -1.4079 C   0  0  0  0  0  4           0  0  0
    2.1143    0.0000   -1.4079 C   0  0  0  0  0  4           0  0  0
    1.5259   -0.0000   -0.0000 C   0  0  0  0  0  4           0  0  0
    0.0000    0.0000    0.0000 C   0  0  0  0  0  4           0  0  0
   -0.5884    0.0000    1.4079 C   0  0  0  0  0  4           0  0  0
   -2.1143   -0.0000    1.4079 C   0  0  0  0  0  4           0  0  0
   -2.7027   -0.0000    2.8157 C   0  0  0  0  0  4           0  0  0
   -4.2286   -0.0000    2.8157 C   0  0  0  0  0  4           0  0  0
   -4.8170   -0.0000    4.2236 C   0  0  0  0  0  4           0  0  0
   -6.3429   -0.0000    4.2236 C   0  0  0  0  0  4           0  0  0
   -6.9313   -0.0000    5.6314 C   0  0  0  0  0  4           0  0  0
   -8.4572   -0.0000    5.6314 C   0  0  0  0  0  4           0  0  0
   -9.0528   -0.0000    7.0314 C   0  0  0  0  0  4           0  0  0
  1  6  2  0     0  0
  2  7  2  0     0  0
  3  6  1  0     0  0
  3  9  1  0     0  0
  4  8  1  0     0  0
  5 10  1  0     0  0
  6 11  1  0     0  0
  7 11  1  0     0  0
  7 12  1  0     0  0
  8  9  1  0     0  0
  8 11  2  0     0  0
  9 10  1  0     0  0
 12 13  1  0     0  0
 13 14  1  0     0  0
 14 15  1  0     0  0
 15 16  1  0     0  0
 16 17  1  0     0  0
 17 18  1  0     0  0
 18 19  1  0     0  0
 19 20  1  0     0  0
 20 21  1  0     0  0
 21 22  1  0     0  0
 22 23  1  0     0  0
 23 24  1  0     0  0
 24 25  1  0     0  0
 25 26  1  0     0  0
M  END
> <standard_type>
pIC50

> <# Confs.>
25

> <canonical_smiles>
O=C1C(C(CCCCCCCCCCCCCCC)=O)=C(O)[C@@H](CO)O1

> <standard_relation>
=

> <predicted_activity_value>
5.424812155072339

> <actual_activity_value>
5.657577319177793

> <Compound>
27

> <publication_ID>
nan

> <standard_units>
nM

> hash
13892040024061748084

$$$$
27_
XXILIB    08252103423D 0   0.00000     0.00000

 26 26  0     1  0            999 V2000
    8.6534   -0.5988   -2.8013 O   0  0  0  0  0  2           0  0  0
    5.7368    2.2987   -2.0888 O   0  0  0  0  0  2           0  0  0
    9.7831    0.2994   -1.0208 O   0  0  0  0  0  2           0  0  0
    7.5714    2.7072    0.3988 O   0  0  0  0  0  2           0  0  0
    8.6443   -0.4985    1.4625 O   0  0  0  0  0  2           0  0  0
    8.7087    0.1645   -1.8518 C   0  0  0  0  0  4           0  0  0
    6.3241    1.2175   -2.1128 C   0  0  0  0  0  4           0  0  0
    8.1249    1.7142   -0.3543 C   0  0  0  0  0  4           0  0  0
    9.4869    1.2610    0.0010 C   0  0  1  0  0  4           0  0  0
    9.5711    0.5779    1.3605 C   0  0  0  0  0  4           0  0  0
    7.6329    1.0853   -1.4253 C   0  0  0  0  0  4           0  0  0
    5.7546   -0.0000   -2.8157 C   0  0  0  0  0  4           0  0  0
    4.2286    0.0000   -2.8157 C   0  0  0  0  0  4           0  0  0
    3.6402   -0.0000   -1.4079 C   0  0  0  0  0  4           0  0  0
    2.1143    0.0000   -1.4079 C   0  0  0  0  0  4           0  0  0
    1.5259   -0.0000    0.0000 C   0  0  0  0  0  4           0  0  0
    0.0000    0.0000    0.0000 C   0  0  0  0  0  4           0  0  0
   -0.5884    0.0000    1.4079 C   0  0  0  0  0  4           0  0  0
   -2.1143   -0.0000    1.4079 C   0  0  0  0  0  4           0  0  0
   -2.7027   -0.0000    2.8157 C   0  0  0  0  0  4           0  0  0
   -4.2286   -0.0000    2.8157 C   0  0  0  0  0  4           0  0  0
   -4.8170   -0.0000    4.2236 C   0  0  0  0  0  4           0  0  0
   -6.3429   -0.0000    4.2236 C   0  0  0  0  0  4           0  0  0
   -6.9313   -0.0000    5.6314 C   0  0  0  0  0  4           0  0  0
   -8.4572   -0.0000    5.6314 C   0  0  0  0  0  4           0  0  0
   -9.0528   -0.0000    7.0314 C   0  0  0  0  0  4           0  0  0
  1  6  2  0     0  0
  2  7  2  0     0  0
  3  6  1  0     0  0
  3  9  1  0     0  0
  4  8  1  0     0  0
  5 10  1  0     0  0
  6 11  1  0     0  0
  7 11  1  0     0  0
  7 12  1  0     0  0
  8  9  1  0     0  0
  8 11  2  0     0  0
  9 10  1  0     0  0
 12 13  1  0     0  0
 13 14  1  0     0  0
 14 15  1  0     0  0
 15 16  1  0     0  0
 16 17  1  0     0  0
 17 18  1  0     0  0
 18 19  1  0     0  0
 19 20  1  0     0  0
 20 21  1  0     0  0
 21 22  1  0     0  0
 22 23  1  0     0  0
 23 24  1  0     0  0
 24 25  1  0     0  0
 25 26  1  0     0  0
M  END
> <standard_type>
pIC50

> <# Confs.>
25

> <canonical_smiles>
O=C1C(C(CCCCCCCCCCCCCCC)=O)=C(O)[C@@H](CO)O1

> <standard_relation>
=

> <predicted_activity_value>
5.424812155072339

> <actual_activity_value>
5.657577319177793

> <Compound>
27

> <publication_ID>
nan

> <standard_units>
nM

> hash
13892040024061748084

$$$$
27_
XXILIB    08252103423D 0   0.00000     0.00000

 26 26  0     1  0            999 V2000
    0.6998    4.8463   -5.3223 O   0  0  0  0  0  2           0  0  0
    3.1825    1.5176   -6.2358 O   0  0  0  0  0  2           0  0  0
    1.1676    5.5472   -7.4537 O   0  0  0  0  0  2           0  0  0
    3.3443    3.0758   -8.8171 O   0  0  0  0  0  2           0  0  0
   -0.0571    3.8774   -9.4063 O   0  0  0  0  0  2           0  0  0
    1.2536    4.6874   -6.3972 C   0  0  0  0  0  4           0  0  0
    2.4501    2.4241   -5.8407 C   0  0  0  0  0  4           0  0  0
    2.4974    3.7834   -8.0160 C   0  0  0  0  0  4           0  0  0
    1.9176    5.0298   -8.5611 C   0  0  1  0  0  4           0  0  0
    0.9724    4.8048   -9.7350 C   0  0  0  0  0  4           0  0  0
    2.1204    3.5444   -6.7570 C   0  0  0  0  0  4           0  0  0
    1.8575    2.4386   -4.4445 C   0  0  0  0  0  4           0  0  0
    2.2801    1.2192   -3.6301 C   0  0  0  0  0  4           0  0  0
    1.6917    1.2192   -2.2222 C   0  0  0  0  0  4           0  0  0
    2.1143    0.0000   -1.4079 C   0  0  0  0  0  4           0  0  0
    1.5259   -0.0000   -0.0000 C   0  0  0  0  0  4           0  0  0
    0.0000    0.0000    0.0000 C   0  0  0  0  0  4           0  0  0
   -0.5884    0.0000    1.4079 C   0  0  0  0  0  4           0  0  0
   -2.1143   -0.0000    1.4079 C   0  0  0  0  0  4           0  0  0
   -2.7027   -0.0000    2.8157 C   0  0  0  0  0  4           0  0  0
   -4.2286   -0.0000    2.8157 C   0  0  0  0  0  4           0  0  0
   -4.8170   -0.0000    4.2236 C   0  0  0  0  0  4           0  0  0
   -6.3429   -0.0000    4.2236 C   0  0  0  0  0  4           0  0  0
   -6.9313   -0.0000    5.6314 C   0  0  0  0  0  4           0  0  0
   -8.4572   -0.0000    5.6314 C   0  0  0  0  0  4           0  0  0
   -9.0528   -0.0000    7.0314 C   0  0  0  0  0  4           0  0  0
  1  6  2  0     0  0
  2  7  2  0     0  0
  3  6  1  0     0  0
  3  9  1  0     0  0
  4  8  1  0     0  0
  5 10  1  0     0  0
  6 11  1  0     0  0
  7 11  1  0     0  0
  7 12  1  0     0  0
  8  9  1  0     0  0
  8 11  2  0     0  0
  9 10  1  0     0  0
 12 13  1  0     0  0
 13 14  1  0     0  0
 14 15  1  0     0  0
 15 16  1  0     0  0
 16 17  1  0     0  0
 17 18  1  0     0  0
 18 19  1  0     0  0
 19 20  1  0     0  0
 20 21  1  0     0  0
 21 22  1  0     0  0
 22 23  1  0     0  0
 23 24  1  0     0  0
 24 25  1  0     0  0
 25 26  1  0     0  0
M  END
> <standard_type>
pIC50

> <# Confs.>
25

> <canonical_smiles>
O=C1C(C(CCCCCCCCCCCCCCC)=O)=C(O)[C@@H](CO)O1

> <standard_relation>
=

> <predicted_activity_value>
5.424812155072339

> <actual_activity_value>
5.657577319177793

> <Compound>
27

> <publication_ID>
nan

> <standard_units>
nM

> hash
13892040024061748084

$$$$
27_
XXILIB    08252103423D 0   0.00000     0.00000

 26 26  0     1  0            999 V2000
    8.4675   -1.8049    1.0255 O   0  0  0  0  0  2           0  0  0
    5.6077   -4.5226    2.6111 O   0  0  0  0  0  2           0  0  0
   10.0356   -3.2463    1.8720 O   0  0  0  0  0  2           0  0  0
    8.1856   -5.8603    3.4369 O   0  0  0  0  0  2           0  0  0
   10.0826   -5.7097    0.4473 O   0  0  0  0  0  2           0  0  0
    8.7608   -2.8280    1.6209 C   0  0  0  0  0  4           0  0  0
    6.3241   -3.6560    2.1108 C   0  0  0  0  0  4           0  0  0
    8.5581   -4.7529    2.7337 C   0  0  0  0  0  4           0  0  0
   10.0054   -4.5023    2.5635 C   0  0  1  0  0  4           0  0  0
   10.7139   -5.5502    1.7138 C   0  0  0  0  0  4           0  0  0
    7.7995   -3.8008    2.1836 C   0  0  0  0  0  4           0  0  0
    5.7546   -2.4385    1.4079 C   0  0  0  0  0  4           0  0  0
    4.2286   -2.4385    1.4079 C   0  0  0  0  0  4           0  0  0
    3.6402   -1.2192    0.7039 C   0  0  0  0  0  4           0  0  0
    2.1143   -1.2192    0.7039 C   0  0  0  0  0  4           0  0  0
    1.5259    0.0000    0.0000 C   0  0  0  0  0  4           0  0  0
    0.0000    0.0000    0.0000 C   0  0  0  0  0  4           0  0  0
   -0.5884    0.0000    1.4079 C   0  0  0  0  0  4           0  0  0
   -2.1143   -0.0000    1.4079 C   0  0  0  0  0  4           0  0  0
   -2.7027   -0.0000    2.8157 C   0  0  0  0  0  4           0  0  0
   -4.2286   -0.0000    2.8157 C   0  0  0  0  0  4           0  0  0
   -4.8170   -0.0000    4.2236 C   0  0  0  0  0  4           0  0  0
   -6.3429   -0.0000    4.2236 C   0  0  0  0  0  4           0  0  0
   -6.9313   -0.0000    5.6314 C   0  0  0  0  0  4           0  0  0
   -8.4572   -0.0000    5.6314 C   0  0  0  0  0  4           0  0  0
   -9.0528   -0.0000    7.0314 C   0  0  0  0  0  4           0  0  0
  1  6  2  0     0  0
  2  7  2  0     0  0
  3  6  1  0     0  0
  3  9  1  0     0  0
  4  8  1  0     0  0
  5 10  1  0     0  0
  6 11  1  0     0  0
  7 11  1  0     0  0
  7 12  1  0     0  0
  8  9  1  0     0  0
  8 11  2  0     0  0
  9 10  1  0     0  0
 12 13  1  0     0  0
 13 14  1  0     0  0
 14 15  1  0     0  0
 15 16  1  0     0  0
 16 17  1  0     0  0
 17 18  1  0     0  0
 18 19  1  0     0  0
 19 20  1  0     0  0
 20 21  1  0     0  0
 21 22  1  0     0  0
 22 23  1  0     0  0
 23 24  1  0     0  0
 24 25  1  0     0  0
 25 26  1  0     0  0
M  END
> <standard_type>
pIC50

> <# Confs.>
25

> <canonical_smiles>
O=C1C(C(CCCCCCCCCCCCCCC)=O)=C(O)[C@@H](CO)O1

> <standard_relation>
=

> <predicted_activity_value>
5.424812155072339

> <actual_activity_value>
5.657577319177793

> <Compound>
27

> <publication_ID>
nan

> <standard_units>
nM

> hash
13892040024061748084

$$$$
27_
XXILIB    08252103423D 0   0.00000     0.00000

 26 26  0     1  0            999 V2000
    8.4675    0.0143   -2.0758 O   0  0  0  0  0  2           0  0  0
    5.6077    0.0000   -5.2222 O   0  0  0  0  0  2           0  0  0
   10.0356    0.0020   -3.7474 O   0  0  0  0  0  2           0  0  0
    8.1856   -0.0463   -6.7936 O   0  0  0  0  0  2           0  0  0
   10.0826    2.4675   -5.1684 O   0  0  0  0  0  2           0  0  0
    8.7608    0.0103   -3.2595 C   0  0  0  0  0  4           0  0  0
    6.3241   -0.0000   -4.2216 C   0  0  0  0  0  4           0  0  0
    8.5581    0.0090   -5.4830 C   0  0  0  0  0  4           0  0  0
   10.0054    0.0311   -5.1808 C   0  0  1  0  0  4           0  0  0
   10.7139    1.2909   -5.6635 C   0  0  0  0  0  4           0  0  0
    7.7995    0.0093   -4.3834 C   0  0  0  0  0  4           0  0  0
    5.7546   -0.0000   -2.8157 C   0  0  0  0  0  4           0  0  0
    4.2286    0.0000   -2.8157 C   0  0  0  0  0  4           0  0  0
    3.6402   -0.0000   -1.4079 C   0  0  0  0  0  4           0  0  0
    2.1143    0.0000   -1.4079 C   0  0  0  0  0  4           0  0  0
    1.5259   -0.0000   -0.0000 C   0  0  0  0  0  4           0  0  0
    0.0000   -0.0000    0.0000 C   0  0  0  0  0  4           0  0  0
   -0.5884    0.0000    1.4079 C   0  0  0  0  0  4           0  0  0
   -0.1658    1.2192    2.2222 C   0  0  0  0  0  4           0  0  0
   -0.7542    1.2192    3.6301 C   0  0  0  0  0  4           0  0  0
   -0.3317    2.4385    4.4444 C   0  0  0  0  0  4           0  0  0
   -0.9201    2.4385    5.8523 C   0  0  0  0  0  4           0  0  0
   -0.4975    3.6577    6.6666 C   0  0  0  0  0  4           0  0  0
   -1.0859    3.6577    8.0745 C   0  0  0  0  0  4           0  0  0
   -0.6633    4.8770    8.8889 C   0  0  0  0  0  4           0  0  0
   -1.2455    4.8854   10.2945 C   0  0  0  0  0  4           0  0  0
  1  6  2  0     0  0
  2  7  2  0     0  0
  3  6  1  0     0  0
  3  9  1  0     0  0
  4  8  1  0     0  0
  5 10  1  0     0  0
  6 11  1  0     0  0
  7 11  1  0     0  0
  7 12  1  0     0  0
  8  9  1  0     0  0
  8 11  2  0     0  0
  9 10  1  0     0  0
 12 13  1  0     0  0
 13 14  1  0     0  0
 14 15  1  0     0  0
 15 16  1  0     0  0
 16 17  1  0     0  0
 17 18  1  0     0  0
 18 19  1  0     0  0
 19 20  1  0     0  0
 20 21  1  0     0  0
 21 22  1  0     0  0
 22 23  1  0     0  0
 23 24  1  0     0  0
 24 25  1  0     0  0
 25 26  1  0     0  0
M  END
> <standard_type>
pIC50

> <# Confs.>
25

> <canonical_smiles>
O=C1C(C(CCCCCCCCCCCCCCC)=O)=C(O)[C@@H](CO)O1

> <standard_relation>
=

> <predicted_activity_value>
5.424812155072339

> <actual_activity_value>
5.657577319177793

> <Compound>
27

> <publication_ID>
nan

> <standard_units>
nM

> hash
13892040024061748084

$$$$
27_
XXILIB    08252103423D 0   0.00000     0.00000

 26 26  0     1  0            999 V2000
    8.4675    0.0143   -2.0758 O   0  0  0  0  0  2           0  0  0
    5.6077    0.0000   -5.2222 O   0  0  0  0  0  2           0  0  0
   10.0356    0.0020   -3.7474 O   0  0  0  0  0  2           0  0  0
    8.1856   -0.0463   -6.7936 O   0  0  0  0  0  2           0  0  0
   10.0826    2.4675   -5.1684 O   0  0  0  0  0  2           0  0  0
    8.7608    0.0103   -3.2595 C   0  0  0  0  0  4           0  0  0
    6.3241   -0.0000   -4.2216 C   0  0  0  0  0  4           0  0  0
    8.5581    0.0090   -5.4830 C   0  0  0  0  0  4           0  0  0
   10.0054    0.0311   -5.1808 C   0  0  1  0  0  4           0  0  0
   10.7139    1.2909   -5.6635 C   0  0  0  0  0  4           0  0  0
    7.7995    0.0093   -4.3834 C   0  0  0  0  0  4           0  0  0
    5.7546   -0.0000   -2.8157 C   0  0  0  0  0  4           0  0  0
    4.2286    0.0000   -2.8157 C   0  0  0  0  0  4           0  0  0
    3.6402   -0.0000   -1.4079 C   0  0  0  0  0  4           0  0  0
    2.1143    0.0000   -1.4079 C   0  0  0  0  0  4           0  0  0
    1.5259   -0.0000   -0.0000 C   0  0  0  0  0  4           0  0  0
    0.0000    0.0000    0.0000 C   0  0  0  0  0  4           0  0  0
   -0.5884    0.0000    1.4079 C   0  0  0  0  0  4           0  0  0
   -2.1143   -0.0000    1.4079 C   0  0  0  0  0  4           0  0  0
   -2.7027   -1.2192    0.7039 C   0  0  0  0  0  4           0  0  0
   -4.2286   -1.2192    0.7039 C   0  0  0  0  0  4           0  0  0
   -4.8170   -2.4385   -0.0000 C   0  0  0  0  0  4           0  0  0
   -6.3429   -2.4385   -0.0000 C   0  0  0  0  0  4           0  0  0
   -6.9313   -3.6577   -0.7039 C   0  0  0  0  0  4           0  0  0
   -8.4572   -3.6577   -0.7039 C   0  0  0  0  0  4           0  0  0
   -9.0528   -4.8701   -1.4039 C   0  0  0  0  0  4           0  0  0
  1  6  2  0     0  0
  2  7  2  0     0  0
  3  6  1  0     0  0
  3  9  1  0     0  0
  4  8  1  0     0  0
  5 10  1  0     0  0
  6 11  1  0     0  0
  7 11  1  0     0  0
  7 12  1  0     0  0
  8  9  1  0     0  0
  8 11  2  0     0  0
  9 10  1  0     0  0
 12 13  1  0     0  0
 13 14  1  0     0  0
 14 15  1  0     0  0
 15 16  1  0     0  0
 16 17  1  0     0  0
 17 18  1  0     0  0
 18 19  1  0     0  0
 19 20  1  0     0  0
 20 21  1  0     0  0
 21 22  1  0     0  0
 22 23  1  0     0  0
 23 24  1  0     0  0
 24 25  1  0     0  0
 25 26  1  0     0  0
M  END
> <standard_type>
pIC50

> <# Confs.>
25

> <canonical_smiles>
O=C1C(C(CCCCCCCCCCCCCCC)=O)=C(O)[C@@H](CO)O1

> <standard_relation>
=

> <predicted_activity_value>
5.424812155072339

> <actual_activity_value>
5.657577319177793

> <Compound>
27

> <publication_ID>
nan

> <standard_units>
nM

> hash
13892040024061748084

$$$$
27_
XXILIB    08252103423D 0   0.00000     0.00000

 26 26  0     1  0            999 V2000
    8.4675    0.0143   -2.0758 O   0  0  0  0  0  2           0  0  0
    5.6077    0.0000   -5.2222 O   0  0  0  0  0  2           0  0  0
   10.0356    0.0020   -3.7474 O   0  0  0  0  0  2           0  0  0
    8.1856   -0.0463   -6.7936 O   0  0  0  0  0  2           0  0  0
   10.0826    2.4675   -5.1684 O   0  0  0  0  0  2           0  0  0
    8.7608    0.0103   -3.2595 C   0  0  0  0  0  4           0  0  0
    6.3241   -0.0000   -4.2216 C   0  0  0  0  0  4           0  0  0
    8.5581    0.0090   -5.4830 C   0  0  0  0  0  4           0  0  0
   10.0054    0.0311   -5.1808 C   0  0  1  0  0  4           0  0  0
   10.7139    1.2909   -5.6635 C   0  0  0  0  0  4           0  0  0
    7.7995    0.0093   -4.3834 C   0  0  0  0  0  4           0  0  0
    5.7546   -0.0000   -2.8157 C   0  0  0  0  0  4           0  0  0
    4.2286    0.0000   -2.8157 C   0  0  0  0  0  4           0  0  0
    3.6402   -0.0000   -1.4079 C   0  0  0  0  0  4           0  0  0
    2.1143    0.0000   -1.4079 C   0  0  0  0  0  4           0  0  0
    1.5259   -0.0000   -0.0000 C   0  0  0  0  0  4           0  0  0
    0.0000   -0.0000    0.0000 C   0  0  0  0  0  4           0  0  0
   -0.5884    0.0000    1.4079 C   0  0  0  0  0  4           0  0  0
   -2.1143   -0.0000    1.4079 C   0  0  0  0  0  4           0  0  0
   -2.7027   -0.0000    2.8157 C   0  0  0  0  0  4           0  0  0
   -2.2801    1.2192    3.6301 C   0  0  0  0  0  4           0  0  0
   -2.8685    1.2192    5.0379 C   0  0  0  0  0  4           0  0  0
   -2.4460    2.4385    5.8523 C   0  0  0  0  0  4           0  0  0
   -3.0344    2.4385    7.2601 C   0  0  0  0  0  4           0  0  0
   -2.6118    3.6577    8.0745 C   0  0  0  0  0  4           0  0  0
   -3.1940    3.6661    9.4801 C   0  0  0  0  0  4           0  0  0
  1  6  2  0     0  0
  2  7  2  0     0  0
  3  6  1  0     0  0
  3  9  1  0     0  0
  4  8  1  0     0  0
  5 10  1  0     0  0
  6 11  1  0     0  0
  7 11  1  0     0  0
  7 12  1  0     0  0
  8  9  1  0     0  0
  8 11  2  0     0  0
  9 10  1  0     0  0
 12 13  1  0     0  0
 13 14  1  0     0  0
 14 15  1  0     0  0
 15 16  1  0     0  0
 16 17  1  0     0  0
 17 18  1  0     0  0
 18 19  1  0     0  0
 19 20  1  0     0  0
 20 21  1  0     0  0
 21 22  1  0     0  0
 22 23  1  0     0  0
 23 24  1  0     0  0
 24 25  1  0     0  0
 25 26  1  0     0  0
M  END
> <standard_type>
pIC50

> <# Confs.>
25

> <canonical_smiles>
O=C1C(C(CCCCCCCCCCCCCCC)=O)=C(O)[C@@H](CO)O1

> <standard_relation>
=

> <predicted_activity_value>
5.424812155072339

> <actual_activity_value>
5.657577319177793

> <Compound>
27

> <publication_ID>
nan

> <standard_units>
nM

> hash
13892040024061748084

$$$$
27_
XXILIB    08252103423D 0   0.00000     0.00000

 26 26  0     1  0            999 V2000
    8.4675    0.0143   -2.0758 O   0  0  0  0  0  2           0  0  0
    5.6077    0.0000   -5.2222 O   0  0  0  0  0  2           0  0  0
   10.0356    0.0020   -3.7474 O   0  0  0  0  0  2           0  0  0
    8.1856   -0.0463   -6.7936 O   0  0  0  0  0  2           0  0  0
   10.0826    2.4675   -5.1684 O   0  0  0  0  0  2           0  0  0
    8.7608    0.0103   -3.2595 C   0  0  0  0  0  4           0  0  0
    6.3241   -0.0000   -4.2216 C   0  0  0  0  0  4           0  0  0
    8.5581    0.0090   -5.4830 C   0  0  0  0  0  4           0  0  0
   10.0054    0.0311   -5.1808 C   0  0  1  0  0  4           0  0  0
   10.7139    1.2909   -5.6635 C   0  0  0  0  0  4           0  0  0
    7.7995    0.0093   -4.3834 C   0  0  0  0  0  4           0  0  0
    5.7546   -0.0000   -2.8157 C   0  0  0  0  0  4           0  0  0
    4.2286    0.0000   -2.8157 C   0  0  0  0  0  4           0  0  0
    3.6402   -0.0000   -1.4079 C   0  0  0  0  0  4           0  0  0
    2.1143    0.0000   -1.4079 C   0  0  0  0  0  4           0  0  0
    1.5259   -0.0000   -0.0000 C   0  0  0  0  0  4           0  0  0
    0.0000    0.0000    0.0000 C   0  0  0  0  0  4           0  0  0
   -0.5884    0.0000    1.4079 C   0  0  0  0  0  4           0  0  0
   -2.1143   -0.0000    1.4079 C   0  0  0  0  0  4           0  0  0
   -2.7027   -0.0000    2.8157 C   0  0  0  0  0  4           0  0  0
   -4.2286   -0.0000    2.8157 C   0  0  0  0  0  4           0  0  0
   -4.8170   -1.2192    2.1118 C   0  0  0  0  0  4           0  0  0
   -6.3429   -1.2192    2.1118 C   0  0  0  0  0  4           0  0  0
   -6.9313   -2.4385    1.4079 C   0  0  0  0  0  4           0  0  0
   -8.4572   -2.4385    1.4079 C   0  0  0  0  0  4           0  0  0
   -9.0528   -3.6509    0.7079 C   0  0  0  0  0  4           0  0  0
  1  6  2  0     0  0
  2  7  2  0     0  0
  3  6  1  0     0  0
  3  9  1  0     0  0
  4  8  1  0     0  0
  5 10  1  0     0  0
  6 11  1  0     0  0
  7 11  1  0     0  0
  7 12  1  0     0  0
  8  9  1  0     0  0
  8 11  2  0     0  0
  9 10  1  0     0  0
 12 13  1  0     0  0
 13 14  1  0     0  0
 14 15  1  0     0  0
 15 16  1  0     0  0
 16 17  1  0     0  0
 17 18  1  0     0  0
 18 19  1  0     0  0
 19 20  1  0     0  0
 20 21  1  0     0  0
 21 22  1  0     0  0
 22 23  1  0     0  0
 23 24  1  0     0  0
 24 25  1  0     0  0
 25 26  1  0     0  0
M  END
> <standard_type>
pIC50

> <# Confs.>
25

> <canonical_smiles>
O=C1C(C(CCCCCCCCCCCCCCC)=O)=C(O)[C@@H](CO)O1

> <standard_relation>
=

> <predicted_activity_value>
5.424812155072339

> <actual_activity_value>
5.657577319177793

> <Compound>
27

> <publication_ID>
nan

> <standard_units>
nM

> hash
13892040024061748084

$$$$
27_
XXILIB    08252103423D 0   0.00000     0.00000

 26 26  0     1  0            999 V2000
    8.4675    0.0143   -2.0758 O   0  0  0  0  0  2           0  0  0
    5.6077    0.0000   -5.2222 O   0  0  0  0  0  2           0  0  0
   10.0356    0.0020   -3.7474 O   0  0  0  0  0  2           0  0  0
    8.1856   -0.0463   -6.7936 O   0  0  0  0  0  2           0  0  0
   10.0826    2.4675   -5.1684 O   0  0  0  0  0  2           0  0  0
    8.7608    0.0103   -3.2595 C   0  0  0  0  0  4           0  0  0
    6.3241   -0.0000   -4.2216 C   0  0  0  0  0  4           0  0  0
    8.5581    0.0090   -5.4830 C   0  0  0  0  0  4           0  0  0
   10.0054    0.0311   -5.1808 C   0  0  1  0  0  4           0  0  0
   10.7139    1.2909   -5.6635 C   0  0  0  0  0  4           0  0  0
    7.7995    0.0093   -4.3834 C   0  0  0  0  0  4           0  0  0
    5.7546   -0.0000   -2.8157 C   0  0  0  0  0  4           0  0  0
    4.2286    0.0000   -2.8157 C   0  0  0  0  0  4           0  0  0
    3.6402   -0.0000   -1.4079 C   0  0  0  0  0  4           0  0  0
    2.1143    0.0000   -1.4079 C   0  0  0  0  0  4           0  0  0
    1.5259   -0.0000   -0.0000 C   0  0  0  0  0  4           0  0  0
    0.0000    0.0000    0.0000 C   0  0  0  0  0  4           0  0  0
   -0.5884    0.0000    1.4079 C   0  0  0  0  0  4           0  0  0
   -2.1143   -0.0000    1.4079 C   0  0  0  0  0  4           0  0  0
   -2.7027   -0.0000    2.8157 C   0  0  0  0  0  4           0  0  0
   -4.2286   -0.0000    2.8157 C   0  0  0  0  0  4           0  0  0
   -4.8170   -0.0000    4.2236 C   0  0  0  0  0  4           0  0  0
   -4.3944    1.2192    5.0379 C   0  0  0  0  0  4           0  0  0
   -4.9828    1.2192    6.4458 C   0  0  0  0  0  4           0  0  0
   -4.5602    2.4385    7.2601 C   0  0  0  0  0  4           0  0  0
   -5.1424    2.4469    8.6657 C   0  0  0  0  0  4           0  0  0
  1  6  2  0     0  0
  2  7  2  0     0  0
  3  6  1  0     0  0
  3  9  1  0     0  0
  4  8  1  0     0  0
  5 10  1  0     0  0
  6 11  1  0     0  0
  7 11  1  0     0  0
  7 12  1  0     0  0
  8  9  1  0     0  0
  8 11  2  0     0  0
  9 10  1  0     0  0
 12 13  1  0     0  0
 13 14  1  0     0  0
 14 15  1  0     0  0
 15 16  1  0     0  0
 16 17  1  0     0  0
 17 18  1  0     0  0
 18 19  1  0     0  0
 19 20  1  0     0  0
 20 21  1  0     0  0
 21 22  1  0     0  0
 22 23  1  0     0  0
 23 24  1  0     0  0
 24 25  1  0     0  0
 25 26  1  0     0  0
M  END
> <standard_type>
pIC50

> <# Confs.>
25

> <canonical_smiles>
O=C1C(C(CCCCCCCCCCCCCCC)=O)=C(O)[C@@H](CO)O1

> <standard_relation>
=

> <predicted_activity_value>
5.424812155072339

> <actual_activity_value>
5.657577319177793

> <Compound>
27

> <publication_ID>
nan

> <standard_units>
nM

> hash
13892040024061748084

$$$$
27_
XXILIB    08252103423D 0   0.00000     0.00000

 26 26  0     1  0            999 V2000
    8.4675    0.0143   -2.0758 O   0  0  0  0  0  2           0  0  0
    5.6077    0.0000   -5.2222 O   0  0  0  0  0  2           0  0  0
   10.0356    0.0020   -3.7474 O   0  0  0  0  0  2           0  0  0
    8.1856   -0.0463   -6.7936 O   0  0  0  0  0  2           0  0  0
   10.0826    2.4675   -5.1684 O   0  0  0  0  0  2           0  0  0
    8.7608    0.0103   -3.2595 C   0  0  0  0  0  4           0  0  0
    6.3241   -0.0000   -4.2216 C   0  0  0  0  0  4           0  0  0
    8.5581    0.0090   -5.4830 C   0  0  0  0  0  4           0  0  0
   10.0054    0.0311   -5.1808 C   0  0  1  0  0  4           0  0  0
   10.7139    1.2909   -5.6635 C   0  0  0  0  0  4           0  0  0
    7.7995    0.0093   -4.3834 C   0  0  0  0  0  4           0  0  0
    5.7546   -0.0000   -2.8157 C   0  0  0  0  0  4           0  0  0
    4.2286    0.0000   -2.8157 C   0  0  0  0  0  4           0  0  0
    3.6402   -0.0000   -1.4079 C   0  0  0  0  0  4           0  0  0
    2.1143    0.0000   -1.4079 C   0  0  0  0  0  4           0  0  0
    1.5259   -0.0000   -0.0000 C   0  0  0  0  0  4           0  0  0
    0.0000    0.0000    0.0000 C   0  0  0  0  0  4           0  0  0
   -0.5884    0.0000    1.4079 C   0  0  0  0  0  4           0  0  0
   -2.1143   -0.0000    1.4079 C   0  0  0  0  0  4           0  0  0
   -2.7027   -0.0000    2.8157 C   0  0  0  0  0  4           0  0  0
   -4.2286   -0.0000    2.8157 C   0  0  0  0  0  4           0  0  0
   -4.8170   -0.0000    4.2236 C   0  0  0  0  0  4           0  0  0
   -6.3429   -0.0000    4.2236 C   0  0  0  0  0  4           0  0  0
   -6.9313   -1.2192    3.5196 C   0  0  0  0  0  4           0  0  0
   -8.4572   -1.2192    3.5196 C   0  0  0  0  0  4           0  0  0
   -9.0528   -2.4317    2.8197 C   0  0  0  0  0  4           0  0  0
  1  6  2  0     0  0
  2  7  2  0     0  0
  3  6  1  0     0  0
  3  9  1  0     0  0
  4  8  1  0     0  0
  5 10  1  0     0  0
  6 11  1  0     0  0
  7 11  1  0     0  0
  7 12  1  0     0  0
  8  9  1  0     0  0
  8 11  2  0     0  0
  9 10  1  0     0  0
 12 13  1  0     0  0
 13 14  1  0     0  0
 14 15  1  0     0  0
 15 16  1  0     0  0
 16 17  1  0     0  0
 17 18  1  0     0  0
 18 19  1  0     0  0
 19 20  1  0     0  0
 20 21  1  0     0  0
 21 22  1  0     0  0
 22 23  1  0     0  0
 23 24  1  0     0  0
 24 25  1  0     0  0
 25 26  1  0     0  0
M  END
> <standard_type>
pIC50

> <# Confs.>
25

> <canonical_smiles>
O=C1C(C(CCCCCCCCCCCCCCC)=O)=C(O)[C@@H](CO)O1

> <standard_relation>
=

> <predicted_activity_value>
5.424812155072339

> <actual_activity_value>
5.657577319177793

> <Compound>
27

> <publication_ID>
nan

> <standard_units>
nM

> hash
13892040024061748084

$$$$
27_
XXILIB    08252103423D 0   0.00000     0.00000

 26 26  0     1  0            999 V2000
    0.7227   -4.8606   -5.3127 O   0  0  0  0  0  2           0  0  0
    3.1825   -1.5176   -6.2358 O   0  0  0  0  0  2           0  0  0
    1.1707   -5.5492   -7.4524 O   0  0  0  0  0  2           0  0  0
    3.2702   -3.0295   -8.8480 O   0  0  0  0  0  2           0  0  0
    3.8861   -6.3449   -7.7582 O   0  0  0  0  0  2           0  0  0
    1.2700   -4.6976   -6.3903 C   0  0  0  0  0  4           0  0  0
    2.4501   -2.4241   -5.8407 C   0  0  0  0  0  4           0  0  0
    2.5118   -3.7925   -8.0100 C   0  0  0  0  0  4           0  0  0
    1.9674   -5.0609   -8.5403 C   0  0  1  0  0  4           0  0  0
    3.0354   -6.0957   -8.8727 C   0  0  0  0  0  4           0  0  0
    2.1353   -3.5537   -6.7507 C   0  0  0  0  0  4           0  0  0
    1.8575   -2.4386   -4.4445 C   0  0  0  0  0  4           0  0  0
    2.2801   -1.2192   -3.6301 C   0  0  0  0  0  4           0  0  0
    1.6917   -1.2192   -2.2222 C   0  0  0  0  0  4           0  0  0
    2.1143    0.0000   -1.4079 C   0  0  0  0  0  4           0  0  0
    1.5259    0.0000    0.0000 C   0  0  0  0  0  4           0  0  0
    0.0000    0.0000    0.0000 C   0  0  0  0  0  4           0  0  0
   -0.5884    0.0000    1.4079 C   0  0  0  0  0  4           0  0  0
   -2.1143   -0.0000    1.4079 C   0  0  0  0  0  4           0  0  0
   -2.7027   -0.0000    2.8157 C   0  0  0  0  0  4           0  0  0
   -4.2286   -0.0000    2.8157 C   0  0  0  0  0  4           0  0  0
   -4.8170   -0.0000    4.2236 C   0  0  0  0  0  4           0  0  0
   -6.3429   -0.0000    4.2236 C   0  0  0  0  0  4           0  0  0
   -6.9313   -0.0000    5.6314 C   0  0  0  0  0  4           0  0  0
   -8.4572   -0.0000    5.6314 C   0  0  0  0  0  4           0  0  0
   -9.0528   -0.0000    7.0314 C   0  0  0  0  0  4           0  0  0
  1  6  2  0     0  0
  2  7  2  0     0  0
  3  6  1  0     0  0
  3  9  1  0     0  0
  4  8  1  0     0  0
  5 10  1  0     0  0
  6 11  1  0     0  0
  7 11  1  0     0  0
  7 12  1  0     0  0
  8  9  1  0     0  0
  8 11  2  0     0  0
  9 10  1  0     0  0
 12 13  1  0     0  0
 13 14  1  0     0  0
 14 15  1  0     0  0
 15 16  1  0     0  0
 16 17  1  0     0  0
 17 18  1  0     0  0
 18 19  1  0     0  0
 19 20  1  0     0  0
 20 21  1  0     0  0
 21 22  1  0     0  0
 22 23  1  0     0  0
 23 24  1  0     0  0
 24 25  1  0     0  0
 25 26  1  0     0  0
M  END
> <standard_type>
pIC50

> <# Confs.>
25

> <canonical_smiles>
O=C1C(C(CCCCCCCCCCCCCCC)=O)=C(O)[C@@H](CO)O1

> <standard_relation>
=

> <predicted_activity_value>
5.424812155072339

> <actual_activity_value>
5.657577319177793

> <Compound>
27

> <publication_ID>
nan

> <standard_units>
nM

> hash
13892040024061748084

$$$$
27_
XXILIB    08252103423D 0   0.00000     0.00000

 26 26  0     1  0            999 V2000
    8.4675    1.7905    1.0503 O   0  0  0  0  0  2           0  0  0
    5.6077    4.5226    2.6111 O   0  0  0  0  0  2           0  0  0
   10.0356    3.2443    1.8754 O   0  0  0  0  0  2           0  0  0
    8.1856    5.9066    3.3567 O   0  0  0  0  0  2           0  0  0
   10.0826    3.2423    4.7211 O   0  0  0  0  0  2           0  0  0
    8.7608    2.8177    1.6387 C   0  0  0  0  0  4           0  0  0
    6.3241    3.6560    2.1108 C   0  0  0  0  0  4           0  0  0
    8.5581    4.7439    2.7493 C   0  0  0  0  0  4           0  0  0
   10.0054    4.4712    2.6174 C   0  0  1  0  0  4           0  0  0
   10.7139    4.2593    3.9497 C   0  0  0  0  0  4           0  0  0
    7.7995    3.7914    2.1998 C   0  0  0  0  0  4           0  0  0
    5.7546    2.4385    1.4079 C   0  0  0  0  0  4           0  0  0
    4.2286    2.4385    1.4079 C   0  0  0  0  0  4           0  0  0
    3.6402    1.2192    0.7039 C   0  0  0  0  0  4           0  0  0
    2.1143    1.2192    0.7039 C   0  0  0  0  0  4           0  0  0
    1.5259    0.0000   -0.0000 C   0  0  0  0  0  4           0  0  0
    0.0000    0.0000    0.0000 C   0  0  0  0  0  4           0  0  0
   -0.5884    0.0000    1.4079 C   0  0  0  0  0  4           0  0  0
   -2.1143   -0.0000    1.4079 C   0  0  0  0  0  4           0  0  0
   -2.7027   -0.0000    2.8157 C   0  0  0  0  0  4           0  0  0
   -4.2286   -0.0000    2.8157 C   0  0  0  0  0  4           0  0  0
   -4.8170   -0.0000    4.2236 C   0  0  0  0  0  4           0  0  0
   -6.3429   -0.0000    4.2236 C   0  0  0  0  0  4           0  0  0
   -6.9313   -0.0000    5.6314 C   0  0  0  0  0  4           0  0  0
   -8.4572   -0.0000    5.6314 C   0  0  0  0  0  4           0  0  0
   -9.0528   -0.0000    7.0314 C   0  0  0  0  0  4           0  0  0
  1  6  2  0     0  0
  2  7  2  0     0  0
  3  6  1  0     0  0
  3  9  1  0     0  0
  4  8  1  0     0  0
  5 10  1  0     0  0
  6 11  1  0     0  0
  7 11  1  0     0  0
  7 12  1  0     0  0
  8  9  1  0     0  0
  8 11  2  0     0  0
  9 10  1  0     0  0
 12 13  1  0     0  0
 13 14  1  0     0  0
 14 15  1  0     0  0
 15 16  1  0     0  0
 16 17  1  0     0  0
 17 18  1  0     0  0
 18 19  1  0     0  0
 19 20  1  0     0  0
 20 21  1  0     0  0
 21 22  1  0     0  0
 22 23  1  0     0  0
 23 24  1  0     0  0
 24 25  1  0     0  0
 25 26  1  0     0  0
M  END
> <standard_type>
pIC50

> <# Confs.>
25

> <canonical_smiles>
O=C1C(C(CCCCCCCCCCCCCCC)=O)=C(O)[C@@H](CO)O1

> <standard_relation>
=

> <predicted_activity_value>
5.424812155072339

> <actual_activity_value>
5.657577319177793

> <Compound>
27

> <publication_ID>
nan

> <standard_units>
nM

> hash
13892040024061748084

$$$$
27_
XXILIB    08252103423D 0   0.00000     0.00000

 26 26  0     1  0            999 V2000
    8.4675    0.0143   -2.0758 O   0  0  0  0  0  2           0  0  0
    5.6077    0.0000   -5.2222 O   0  0  0  0  0  2           0  0  0
   10.0356    0.0020   -3.7474 O   0  0  0  0  0  2           0  0  0
    8.1856   -0.0463   -6.7936 O   0  0  0  0  0  2           0  0  0
   10.0826    2.4675   -5.1684 O   0  0  0  0  0  2           0  0  0
    8.7608    0.0103   -3.2595 C   0  0  0  0  0  4           0  0  0
    6.3241   -0.0000   -4.2216 C   0  0  0  0  0  4           0  0  0
    8.5581    0.0090   -5.4830 C   0  0  0  0  0  4           0  0  0
   10.0054    0.0311   -5.1808 C   0  0  1  0  0  4           0  0  0
   10.7139    1.2909   -5.6635 C   0  0  0  0  0  4           0  0  0
    7.7995    0.0093   -4.3834 C   0  0  0  0  0  4           0  0  0
    5.7546   -0.0000   -2.8157 C   0  0  0  0  0  4           0  0  0
    4.2286    0.0000   -2.8157 C   0  0  0  0  0  4           0  0  0
    3.6402   -0.0000   -1.4079 C   0  0  0  0  0  4           0  0  0
    2.1143    0.0000   -1.4079 C   0  0  0  0  0  4           0  0  0
    1.5259   -0.0000   -0.0000 C   0  0  0  0  0  4           0  0  0
   -0.0000    0.0000    0.0000 C   0  0  0  0  0  4           0  0  0
   -0.5884    0.0000    1.4079 C   0  0  0  0  0  4           0  0  0
   -0.1658   -1.2192    2.2222 C   0  0  0  0  0  4           0  0  0
   -0.7542   -1.2192    3.6301 C   0  0  0  0  0  4           0  0  0
   -0.3317   -2.4385    4.4444 C   0  0  0  0  0  4           0  0  0
   -0.9201   -2.4385    5.8523 C   0  0  0  0  0  4           0  0  0
   -0.4975   -3.6577    6.6666 C   0  0  0  0  0  4           0  0  0
   -1.0859   -3.6577    8.0745 C   0  0  0  0  0  4           0  0  0
   -0.6633   -4.8770    8.8889 C   0  0  0  0  0  4           0  0  0
   -1.2455   -4.8854   10.2945 C   0  0  0  0  0  4           0  0  0
  1  6  2  0     0  0
  2  7  2  0     0  0
  3  6  1  0     0  0
  3  9  1  0     0  0
  4  8  1  0     0  0
  5 10  1  0     0  0
  6 11  1  0     0  0
  7 11  1  0     0  0
  7 12  1  0     0  0
  8  9  1  0     0  0
  8 11  2  0     0  0
  9 10  1  0     0  0
 12 13  1  0     0  0
 13 14  1  0     0  0
 14 15  1  0     0  0
 15 16  1  0     0  0
 16 17  1  0     0  0
 17 18  1  0     0  0
 18 19  1  0     0  0
 19 20  1  0     0  0
 20 21  1  0     0  0
 21 22  1  0     0  0
 22 23  1  0     0  0
 23 24  1  0     0  0
 24 25  1  0     0  0
 25 26  1  0     0  0
M  END
> <standard_type>
pIC50

> <# Confs.>
25

> <canonical_smiles>
O=C1C(C(CCCCCCCCCCCCCCC)=O)=C(O)[C@@H](CO)O1

> <standard_relation>
=

> <predicted_activity_value>
5.424812155072339

> <actual_activity_value>
5.657577319177793

> <Compound>
27

> <publication_ID>
nan

> <standard_units>
nM

> hash
13892040024061748084

$$$$
27_
XXILIB    08252103423D 0   0.00000     0.00000

 26 26  0     1  0            999 V2000
    8.4675    0.0143   -2.0758 O   0  0  0  0  0  2           0  0  0
    5.6077    0.0000   -5.2222 O   0  0  0  0  0  2           0  0  0
   10.0356    0.0020   -3.7474 O   0  0  0  0  0  2           0  0  0
    8.1856   -0.0463   -6.7936 O   0  0  0  0  0  2           0  0  0
   10.0826    2.4675   -5.1684 O   0  0  0  0  0  2           0  0  0
    8.7608    0.0103   -3.2595 C   0  0  0  0  0  4           0  0  0
    6.3241   -0.0000   -4.2216 C   0  0  0  0  0  4           0  0  0
    8.5581    0.0090   -5.4830 C   0  0  0  0  0  4           0  0  0
   10.0054    0.0311   -5.1808 C   0  0  1  0  0  4           0  0  0
   10.7139    1.2909   -5.6635 C   0  0  0  0  0  4           0  0  0
    7.7995    0.0093   -4.3834 C   0  0  0  0  0  4           0  0  0
    5.7546   -0.0000   -2.8157 C   0  0  0  0  0  4           0  0  0
    4.2286    0.0000   -2.8157 C   0  0  0  0  0  4           0  0  0
    3.6402   -0.0000   -1.4079 C   0  0  0  0  0  4           0  0  0
    2.1143    0.0000   -1.4079 C   0  0  0  0  0  4           0  0  0
    1.5259   -0.0000   -0.0000 C   0  0  0  0  0  4           0  0  0
    0.0000    0.0000    0.0000 C   0  0  0  0  0  4           0  0  0
   -0.5884    0.0000    1.4079 C   0  0  0  0  0  4           0  0  0
   -2.1143   -0.0000    1.4079 C   0  0  0  0  0  4           0  0  0
   -2.7027    1.2192    0.7039 C   0  0  0  0  0  4           0  0  0
   -4.2286    1.2192    0.7039 C   0  0  0  0  0  4           0  0  0
   -4.8170    2.4385   -0.0000 C   0  0  0  0  0  4           0  0  0
   -6.3429    2.4385   -0.0000 C   0  0  0  0  0  4           0  0  0
   -6.9313    3.6577   -0.7039 C   0  0  0  0  0  4           0  0  0
   -8.4572    3.6577   -0.7039 C   0  0  0  0  0  4           0  0  0
   -9.0528    4.8701   -1.4039 C   0  0  0  0  0  4           0  0  0
  1  6  2  0     0  0
  2  7  2  0     0  0
  3  6  1  0     0  0
  3  9  1  0     0  0
  4  8  1  0     0  0
  5 10  1  0     0  0
  6 11  1  0     0  0
  7 11  1  0     0  0
  7 12  1  0     0  0
  8  9  1  0     0  0
  8 11  2  0     0  0
  9 10  1  0     0  0
 12 13  1  0     0  0
 13 14  1  0     0  0
 14 15  1  0     0  0
 15 16  1  0     0  0
 16 17  1  0     0  0
 17 18  1  0     0  0
 18 19  1  0     0  0
 19 20  1  0     0  0
 20 21  1  0     0  0
 21 22  1  0     0  0
 22 23  1  0     0  0
 23 24  1  0     0  0
 24 25  1  0     0  0
 25 26  1  0     0  0
M  END
> <standard_type>
pIC50

> <# Confs.>
25

> <canonical_smiles>
O=C1C(C(CCCCCCCCCCCCCCC)=O)=C(O)[C@@H](CO)O1

> <standard_relation>
=

> <predicted_activity_value>
5.424812155072339

> <actual_activity_value>
5.657577319177793

> <Compound>
27

> <publication_ID>
nan

> <standard_units>
nM

> hash
13892040024061748084

$$$$
27_
XXILIB    08252103423D 0   0.00000     0.00000

 26 26  0     1  0            999 V2000
    8.4675    0.0143   -2.0758 O   0  0  0  0  0  2           0  0  0
    5.6077    0.0000   -5.2222 O   0  0  0  0  0  2           0  0  0
   10.0356    0.0020   -3.7474 O   0  0  0  0  0  2           0  0  0
    8.1856   -0.0463   -6.7936 O   0  0  0  0  0  2           0  0  0
   10.0826    2.4675   -5.1684 O   0  0  0  0  0  2           0  0  0
    8.7608    0.0103   -3.2595 C   0  0  0  0  0  4           0  0  0
    6.3241   -0.0000   -4.2216 C   0  0  0  0  0  4           0  0  0
    8.5581    0.0090   -5.4830 C   0  0  0  0  0  4           0  0  0
   10.0054    0.0311   -5.1808 C   0  0  1  0  0  4           0  0  0
   10.7139    1.2909   -5.6635 C   0  0  0  0  0  4           0  0  0
    7.7995    0.0093   -4.3834 C   0  0  0  0  0  4           0  0  0
    5.7546   -0.0000   -2.8157 C   0  0  0  0  0  4           0  0  0
    4.2286    0.0000   -2.8157 C   0  0  0  0  0  4           0  0  0
    3.6402   -0.0000   -1.4079 C   0  0  0  0  0  4           0  0  0
    2.1143    0.0000   -1.4079 C   0  0  0  0  0  4           0  0  0
    1.5259   -0.0000   -0.0000 C   0  0  0  0  0  4           0  0  0
   -0.0000    0.0000    0.0000 C   0  0  0  0  0  4           0  0  0
   -0.5884   -0.0000    1.4079 C   0  0  0  0  0  4           0  0  0
   -2.1143   -0.0000    1.4079 C   0  0  0  0  0  4           0  0  0
   -2.7027   -0.0000    2.8157 C   0  0  0  0  0  4           0  0  0
   -2.2801   -1.2192    3.6301 C   0  0  0  0  0  4           0  0  0
   -2.8685   -1.2192    5.0379 C   0  0  0  0  0  4           0  0  0
   -2.4460   -2.4385    5.8523 C   0  0  0  0  0  4           0  0  0
   -3.0344   -2.4385    7.2601 C   0  0  0  0  0  4           0  0  0
   -2.6118   -3.6577    8.0745 C   0  0  0  0  0  4           0  0  0
   -3.1940   -3.6661    9.4801 C   0  0  0  0  0  4           0  0  0
  1  6  2  0     0  0
  2  7  2  0     0  0
  3  6  1  0     0  0
  3  9  1  0     0  0
  4  8  1  0     0  0
  5 10  1  0     0  0
  6 11  1  0     0  0
  7 11  1  0     0  0
  7 12  1  0     0  0
  8  9  1  0     0  0
  8 11  2  0     0  0
  9 10  1  0     0  0
 12 13  1  0     0  0
 13 14  1  0     0  0
 14 15  1  0     0  0
 15 16  1  0     0  0
 16 17  1  0     0  0
 17 18  1  0     0  0
 18 19  1  0     0  0
 19 20  1  0     0  0
 20 21  1  0     0  0
 21 22  1  0     0  0
 22 23  1  0     0  0
 23 24  1  0     0  0
 24 25  1  0     0  0
 25 26  1  0     0  0
M  END
> <standard_type>
pIC50

> <# Confs.>
25

> <canonical_smiles>
O=C1C(C(CCCCCCCCCCCCCCC)=O)=C(O)[C@@H](CO)O1

> <standard_relation>
=

> <predicted_activity_value>
5.424812155072339

> <actual_activity_value>
5.657577319177793

> <Compound>
27

> <publication_ID>
nan

> <standard_units>
nM

> hash
13892040024061748084

$$$$
27_
XXILIB    08252103423D 0   0.00000     0.00000

 26 26  0     1  0            999 V2000
    8.4675    0.0143   -2.0758 O   0  0  0  0  0  2           0  0  0
    5.6077    0.0000   -5.2222 O   0  0  0  0  0  2           0  0  0
   10.0356    0.0020   -3.7474 O   0  0  0  0  0  2           0  0  0
    8.1856   -0.0463   -6.7936 O   0  0  0  0  0  2           0  0  0
   10.0826    2.4675   -5.1684 O   0  0  0  0  0  2           0  0  0
    8.7608    0.0103   -3.2595 C   0  0  0  0  0  4           0  0  0
    6.3241   -0.0000   -4.2216 C   0  0  0  0  0  4           0  0  0
    8.5581    0.0090   -5.4830 C   0  0  0  0  0  4           0  0  0
   10.0054    0.0311   -5.1808 C   0  0  1  0  0  4           0  0  0
   10.7139    1.2909   -5.6635 C   0  0  0  0  0  4           0  0  0
    7.7995    0.0093   -4.3834 C   0  0  0  0  0  4           0  0  0
    5.7546   -0.0000   -2.8157 C   0  0  0  0  0  4           0  0  0
    4.2286    0.0000   -2.8157 C   0  0  0  0  0  4           0  0  0
    3.6402   -0.0000   -1.4079 C   0  0  0  0  0  4           0  0  0
    2.1143    0.0000   -1.4079 C   0  0  0  0  0  4           0  0  0
    1.5259   -0.0000   -0.0000 C   0  0  0  0  0  4           0  0  0
    0.0000    0.0000    0.0000 C   0  0  0  0  0  4           0  0  0
   -0.5884    0.0000    1.4079 C   0  0  0  0  0  4           0  0  0
   -2.1143   -0.0000    1.4079 C   0  0  0  0  0  4           0  0  0
   -2.7027    0.0000    2.8157 C   0  0  0  0  0  4           0  0  0
   -4.2286   -0.0000    2.8157 C   0  0  0  0  0  4           0  0  0
   -4.8170    1.2192    2.1118 C   0  0  0  0  0  4           0  0  0
   -6.3429    1.2192    2.1118 C   0  0  0  0  0  4           0  0  0
   -6.9313    2.4385    1.4079 C   0  0  0  0  0  4           0  0  0
   -8.4572    2.4385    1.4079 C   0  0  0  0  0  4           0  0  0
   -9.0528    3.6509    0.7079 C   0  0  0  0  0  4           0  0  0
  1  6  2  0     0  0
  2  7  2  0     0  0
  3  6  1  0     0  0
  3  9  1  0     0  0
  4  8  1  0     0  0
  5 10  1  0     0  0
  6 11  1  0     0  0
  7 11  1  0     0  0
  7 12  1  0     0  0
  8  9  1  0     0  0
  8 11  2  0     0  0
  9 10  1  0     0  0
 12 13  1  0     0  0
 13 14  1  0     0  0
 14 15  1  0     0  0
 15 16  1  0     0  0
 16 17  1  0     0  0
 17 18  1  0     0  0
 18 19  1  0     0  0
 19 20  1  0     0  0
 20 21  1  0     0  0
 21 22  1  0     0  0
 22 23  1  0     0  0
 23 24  1  0     0  0
 24 25  1  0     0  0
 25 26  1  0     0  0
M  END
> <standard_type>
pIC50

> <# Confs.>
25

> <canonical_smiles>
O=C1C(C(CCCCCCCCCCCCCCC)=O)=C(O)[C@@H](CO)O1

> <standard_relation>
=

> <predicted_activity_value>
5.424812155072339

> <actual_activity_value>
5.657577319177793

> <Compound>
27

> <publication_ID>
nan

> <standard_units>
nM

> hash
13892040024061748084

$$$$
27_
XXILIB    08252103423D 0   0.00000     0.00000

 26 26  0     1  0            999 V2000
    8.4675    0.0143   -2.0758 O   0  0  0  0  0  2           0  0  0
    5.6077    0.0000   -5.2222 O   0  0  0  0  0  2           0  0  0
   10.0356    0.0020   -3.7474 O   0  0  0  0  0  2           0  0  0
    8.1856   -0.0463   -6.7936 O   0  0  0  0  0  2           0  0  0
   10.0826    2.4675   -5.1684 O   0  0  0  0  0  2           0  0  0
    8.7608    0.0103   -3.2595 C   0  0  0  0  0  4           0  0  0
    6.3241   -0.0000   -4.2216 C   0  0  0  0  0  4           0  0  0
    8.5581    0.0090   -5.4830 C   0  0  0  0  0  4           0  0  0
   10.0054    0.0311   -5.1808 C   0  0  1  0  0  4           0  0  0
   10.7139    1.2909   -5.6635 C   0  0  0  0  0  4           0  0  0
    7.7995    0.0093   -4.3834 C   0  0  0  0  0  4           0  0  0
    5.7546   -0.0000   -2.8157 C   0  0  0  0  0  4           0  0  0
    4.2286    0.0000   -2.8157 C   0  0  0  0  0  4           0  0  0
    3.6402   -0.0000   -1.4079 C   0  0  0  0  0  4           0  0  0
    2.1143    0.0000   -1.4079 C   0  0  0  0  0  4           0  0  0
    1.5259   -0.0000   -0.0000 C   0  0  0  0  0  4           0  0  0
    0.0000    0.0000    0.0000 C   0  0  0  0  0  4           0  0  0
   -0.5884    0.0000    1.4079 C   0  0  0  0  0  4           0  0  0
   -2.1143   -0.0000    1.4079 C   0  0  0  0  0  4           0  0  0
   -2.7027   -0.0000    2.8157 C   0  0  0  0  0  4           0  0  0
   -4.2286   -0.0000    2.8157 C   0  0  0  0  0  4           0  0  0
   -4.8170   -0.0000    4.2236 C   0  0  0  0  0  4           0  0  0
   -4.3944   -1.2192    5.0379 C   0  0  0  0  0  4           0  0  0
   -4.9828   -1.2192    6.4458 C   0  0  0  0  0  4           0  0  0
   -4.5602   -2.4385    7.2601 C   0  0  0  0  0  4           0  0  0
   -5.1424   -2.4469    8.6657 C   0  0  0  0  0  4           0  0  0
  1  6  2  0     0  0
  2  7  2  0     0  0
  3  6  1  0     0  0
  3  9  1  0     0  0
  4  8  1  0     0  0
  5 10  1  0     0  0
  6 11  1  0     0  0
  7 11  1  0     0  0
  7 12  1  0     0  0
  8  9  1  0     0  0
  8 11  2  0     0  0
  9 10  1  0     0  0
 12 13  1  0     0  0
 13 14  1  0     0  0
 14 15  1  0     0  0
 15 16  1  0     0  0
 16 17  1  0     0  0
 17 18  1  0     0  0
 18 19  1  0     0  0
 19 20  1  0     0  0
 20 21  1  0     0  0
 21 22  1  0     0  0
 22 23  1  0     0  0
 23 24  1  0     0  0
 24 25  1  0     0  0
 25 26  1  0     0  0
M  END
> <standard_type>
pIC50

> <# Confs.>
25

> <canonical_smiles>
O=C1C(C(CCCCCCCCCCCCCCC)=O)=C(O)[C@@H](CO)O1

> <standard_relation>
=

> <predicted_activity_value>
5.424812155072339

> <actual_activity_value>
5.657577319177793

> <Compound>
27

> <publication_ID>
nan

> <standard_units>
nM

> hash
13892040024061748084

$$$$
27_
XXILIB    08252103423D 0   0.00000     0.00000

 26 26  0     1  0            999 V2000
    8.4675    0.0143   -2.0758 O   0  0  0  0  0  2           0  0  0
    5.6077    0.0000   -5.2222 O   0  0  0  0  0  2           0  0  0
   10.0356    0.0020   -3.7474 O   0  0  0  0  0  2           0  0  0
    8.1856   -0.0463   -6.7936 O   0  0  0  0  0  2           0  0  0
   10.0826    2.4675   -5.1684 O   0  0  0  0  0  2           0  0  0
    8.7608    0.0103   -3.2595 C   0  0  0  0  0  4           0  0  0
    6.3241   -0.0000   -4.2216 C   0  0  0  0  0  4           0  0  0
    8.5581    0.0090   -5.4830 C   0  0  0  0  0  4           0  0  0
   10.0054    0.0311   -5.1808 C   0  0  1  0  0  4           0  0  0
   10.7139    1.2909   -5.6635 C   0  0  0  0  0  4           0  0  0
    7.7995    0.0093   -4.3834 C   0  0  0  0  0  4           0  0  0
    5.7546   -0.0000   -2.8157 C   0  0  0  0  0  4           0  0  0
    4.2286    0.0000   -2.8157 C   0  0  0  0  0  4           0  0  0
    3.6402   -0.0000   -1.4079 C   0  0  0  0  0  4           0  0  0
    2.1143    0.0000   -1.4079 C   0  0  0  0  0  4           0  0  0
    1.5259   -0.0000   -0.0000 C   0  0  0  0  0  4           0  0  0
    0.0000    0.0000    0.0000 C   0  0  0  0  0  4           0  0  0
   -0.5884    0.0000    1.4079 C   0  0  0  0  0  4           0  0  0
   -2.1143   -0.0000    1.4079 C   0  0  0  0  0  4           0  0  0
   -2.7027   -0.0000    2.8157 C   0  0  0  0  0  4           0  0  0
   -4.2286   -0.0000    2.8157 C   0  0  0  0  0  4           0  0  0
   -4.8170   -0.0000    4.2236 C   0  0  0  0  0  4           0  0  0
   -6.3429   -0.0000    4.2236 C   0  0  0  0  0  4           0  0  0
   -6.9313    1.2192    3.5196 C   0  0  0  0  0  4           0  0  0
   -8.4572    1.2192    3.5196 C   0  0  0  0  0  4           0  0  0
   -9.0528    2.4317    2.8197 C   0  0  0  0  0  4           0  0  0
  1  6  2  0     0  0
  2  7  2  0     0  0
  3  6  1  0     0  0
  3  9  1  0     0  0
  4  8  1  0     0  0
  5 10  1  0     0  0
  6 11  1  0     0  0
  7 11  1  0     0  0
  7 12  1  0     0  0
  8  9  1  0     0  0
  8 11  2  0     0  0
  9 10  1  0     0  0
 12 13  1  0     0  0
 13 14  1  0     0  0
 14 15  1  0     0  0
 15 16  1  0     0  0
 16 17  1  0     0  0
 17 18  1  0     0  0
 18 19  1  0     0  0
 19 20  1  0     0  0
 20 21  1  0     0  0
 21 22  1  0     0  0
 22 23  1  0     0  0
 23 24  1  0     0  0
 24 25  1  0     0  0
 25 26  1  0     0  0
M  END
> <standard_type>
pIC50

> <# Confs.>
25

> <canonical_smiles>
O=C1C(C(CCCCCCCCCCCCCCC)=O)=C(O)[C@@H](CO)O1

> <standard_relation>
=

> <predicted_activity_value>
5.424812155072339

> <actual_activity_value>
5.657577319177793

> <Compound>
27

> <publication_ID>
nan

> <standard_units>
nM

> hash
13892040024061748084

$$$$
27_
XXILIB    08252103423D 0   0.00000     0.00000

 26 26  0     1  0            999 V2000
    8.4675    0.0143   -2.0758 O   0  0  0  0  0  2           0  0  0
    5.6077    0.0000   -5.2222 O   0  0  0  0  0  2           0  0  0
   10.0356    0.0020   -3.7474 O   0  0  0  0  0  2           0  0  0
    8.1856   -0.0463   -6.7936 O   0  0  0  0  0  2           0  0  0
   10.0826    2.4675   -5.1684 O   0  0  0  0  0  2           0  0  0
    8.7608    0.0103   -3.2595 C   0  0  0  0  0  4           0  0  0
    6.3241   -0.0000   -4.2216 C   0  0  0  0  0  4           0  0  0
    8.5581    0.0090   -5.4830 C   0  0  0  0  0  4           0  0  0
   10.0054    0.0311   -5.1808 C   0  0  1  0  0  4           0  0  0
   10.7139    1.2909   -5.6635 C   0  0  0  0  0  4           0  0  0
    7.7995    0.0093   -4.3834 C   0  0  0  0  0  4           0  0  0
    5.7546   -0.0000   -2.8157 C   0  0  0  0  0  4           0  0  0
    4.2286    0.0000   -2.8157 C   0  0  0  0  0  4           0  0  0
    3.6402   -0.0000   -1.4079 C   0  0  0  0  0  4           0  0  0
    2.1143    0.0000   -1.4079 C   0  0  0  0  0  4           0  0  0
    1.5259   -0.0000   -0.0000 C   0  0  0  0  0  4           0  0  0
    0.0000    0.0000    0.0000 C   0  0  0  0  0  4           0  0  0
   -0.5884    0.0000    1.4079 C   0  0  0  0  0  4           0  0  0
   -2.1143   -0.0000    1.4079 C   0  0  0  0  0  4           0  0  0
   -2.7027   -0.0000    2.8157 C   0  0  0  0  0  4           0  0  0
   -4.2286   -0.0000    2.8157 C   0  0  0  0  0  4           0  0  0
   -4.8170   -0.0000    4.2236 C   0  0  0  0  0  4           0  0  0
   -6.3429   -0.0000    4.2236 C   0  0  0  0  0  4           0  0  0
   -6.9313   -0.0000    5.6314 C   0  0  0  0  0  4           0  0  0
   -6.5087   -1.2192    6.4458 C   0  0  0  0  0  4           0  0  0
   -7.0909   -1.2277    7.8514 C   0  0  0  0  0  4           0  0  0
  1  6  2  0     0  0
  2  7  2  0     0  0
  3  6  1  0     0  0
  3  9  1  0     0  0
  4  8  1  0     0  0
  5 10  1  0     0  0
  6 11  1  0     0  0
  7 11  1  0     0  0
  7 12  1  0     0  0
  8  9  1  0     0  0
  8 11  2  0     0  0
  9 10  1  0     0  0
 12 13  1  0     0  0
 13 14  1  0     0  0
 14 15  1  0     0  0
 15 16  1  0     0  0
 16 17  1  0     0  0
 17 18  1  0     0  0
 18 19  1  0     0  0
 19 20  1  0     0  0
 20 21  1  0     0  0
 21 22  1  0     0  0
 22 23  1  0     0  0
 23 24  1  0     0  0
 24 25  1  0     0  0
 25 26  1  0     0  0
M  END
> <standard_type>
pIC50

> <# Confs.>
25

> <canonical_smiles>
O=C1C(C(CCCCCCCCCCCCCCC)=O)=C(O)[C@@H](CO)O1

> <standard_relation>
=

> <predicted_activity_value>
5.424812155072339

> <actual_activity_value>
5.657577319177793

> <Compound>
27

> <publication_ID>
nan

> <standard_units>
nM

> hash
13892040024061748084

$$$$
27_
XXILIB    08252103423D 0   0.00000     0.00000

 26 26  0     1  0            999 V2000
    8.4675    0.0143   -2.0758 O   0  0  0  0  0  2           0  0  0
    5.6077    0.0000   -5.2222 O   0  0  0  0  0  2           0  0  0
   10.0356    0.0020   -3.7474 O   0  0  0  0  0  2           0  0  0
    8.1856   -0.0463   -6.7936 O   0  0  0  0  0  2           0  0  0
   10.0826    2.4675   -5.1684 O   0  0  0  0  0  2           0  0  0
    8.7608    0.0103   -3.2595 C   0  0  0  0  0  4           0  0  0
    6.3241   -0.0000   -4.2216 C   0  0  0  0  0  4           0  0  0
    8.5581    0.0090   -5.4830 C   0  0  0  0  0  4           0  0  0
   10.0054    0.0311   -5.1808 C   0  0  1  0  0  4           0  0  0
   10.7139    1.2909   -5.6635 C   0  0  0  0  0  4           0  0  0
    7.7995    0.0093   -4.3834 C   0  0  0  0  0  4           0  0  0
    5.7546   -0.0000   -2.8157 C   0  0  0  0  0  4           0  0  0
    4.2286    0.0000   -2.8157 C   0  0  0  0  0  4           0  0  0
    3.6402   -0.0000   -1.4079 C   0  0  0  0  0  4           0  0  0
    2.1143    0.0000   -1.4079 C   0  0  0  0  0  4           0  0  0
    1.5259   -0.0000   -0.0000 C   0  0  0  0  0  4           0  0  0
    0.0000    0.0000    0.0000 C   0  0  0  0  0  4           0  0  0
   -0.5884    0.0000    1.4079 C   0  0  0  0  0  4           0  0  0
   -2.1143   -0.0000    1.4079 C   0  0  0  0  0  4           0  0  0
   -2.7027   -0.0000    2.8157 C   0  0  0  0  0  4           0  0  0
   -4.2286   -0.0000    2.8157 C   0  0  0  0  0  4           0  0  0
   -4.8170   -0.0000    4.2236 C   0  0  0  0  0  4           0  0  0
   -6.3429   -0.0000    4.2236 C   0  0  0  0  0  4           0  0  0
   -6.9313   -0.0000    5.6314 C   0  0  0  0  0  4           0  0  0
   -6.5087    1.2192    6.4458 C   0  0  0  0  0  4           0  0  0
   -7.0909    1.2277    7.8514 C   0  0  0  0  0  4           0  0  0
  1  6  2  0     0  0
  2  7  2  0     0  0
  3  6  1  0     0  0
  3  9  1  0     0  0
  4  8  1  0     0  0
  5 10  1  0     0  0
  6 11  1  0     0  0
  7 11  1  0     0  0
  7 12  1  0     0  0
  8  9  1  0     0  0
  8 11  2  0     0  0
  9 10  1  0     0  0
 12 13  1  0     0  0
 13 14  1  0     0  0
 14 15  1  0     0  0
 15 16  1  0     0  0
 16 17  1  0     0  0
 17 18  1  0     0  0
 18 19  1  0     0  0
 19 20  1  0     0  0
 20 21  1  0     0  0
 21 22  1  0     0  0
 22 23  1  0     0  0
 23 24  1  0     0  0
 24 25  1  0     0  0
 25 26  1  0     0  0
M  END
> <standard_type>
pIC50

> <# Confs.>
25

> <canonical_smiles>
O=C1C(C(CCCCCCCCCCCCCCC)=O)=C(O)[C@@H](CO)O1

> <standard_relation>
=

> <predicted_activity_value>
5.424812155072339

> <actual_activity_value>
5.657577319177793

> <Compound>
27

> <publication_ID>
nan

> <standard_units>
nM

> hash
13892040024061748084

$$$$
27_
XXILIB    08252103423D 0   0.00000     0.00000

 26 26  0     1  0            999 V2000
    8.4675    0.0143   -2.0758 O   0  0  0  0  0  2           0  0  0
    5.6077    0.0000   -5.2222 O   0  0  0  0  0  2           0  0  0
   10.0356    0.0020   -3.7474 O   0  0  0  0  0  2           0  0  0
    8.1856   -0.0463   -6.7936 O   0  0  0  0  0  2           0  0  0
   10.7166    1.3765   -7.0850 O   0  0  0  0  0  2           0  0  0
    8.7608    0.0103   -3.2595 C   0  0  0  0  0  4           0  0  0
    6.3241   -0.0000   -4.2216 C   0  0  0  0  0  4           0  0  0
    8.5581    0.0090   -5.4830 C   0  0  0  0  0  4           0  0  0
   10.0054    0.0311   -5.1808 C   0  0  1  0  0  4           0  0  0
   10.7139    1.2909   -5.6635 C   0  0  0  0  0  4           0  0  0
    7.7995    0.0093   -4.3834 C   0  0  0  0  0  4           0  0  0
    5.7546   -0.0000   -2.8157 C   0  0  0  0  0  4           0  0  0
    4.2286    0.0000   -2.8157 C   0  0  0  0  0  4           0  0  0
    3.6402   -0.0000   -1.4079 C   0  0  0  0  0  4           0  0  0
    2.1143    0.0000   -1.4079 C   0  0  0  0  0  4           0  0  0
    1.5259   -0.0000   -0.0000 C   0  0  0  0  0  4           0  0  0
    0.0000    0.0000    0.0000 C   0  0  0  0  0  4           0  0  0
   -0.5884    0.0000    1.4079 C   0  0  0  0  0  4           0  0  0
   -2.1143   -0.0000    1.4079 C   0  0  0  0  0  4           0  0  0
   -2.7027   -0.0000    2.8157 C   0  0  0  0  0  4           0  0  0
   -4.2286   -0.0000    2.8157 C   0  0  0  0  0  4           0  0  0
   -4.8170   -0.0000    4.2236 C   0  0  0  0  0  4           0  0  0
   -6.3429   -0.0000    4.2236 C   0  0  0  0  0  4           0  0  0
   -6.9313   -0.0000    5.6314 C   0  0  0  0  0  4           0  0  0
   -8.4572   -0.0000    5.6314 C   0  0  0  0  0  4           0  0  0
   -9.0528   -1.2124    4.9315 C   0  0  0  0  0  4           0  0  0
  1  6  2  0     0  0
  2  7  2  0     0  0
  3  6  1  0     0  0
  3  9  1  0     0  0
  4  8  1  0     0  0
  5 10  1  0     0  0
  6 11  1  0     0  0
  7 11  1  0     0  0
  7 12  1  0     0  0
  8  9  1  0     0  0
  8 11  2  0     0  0
  9 10  1  0     0  0
 12 13  1  0     0  0
 13 14  1  0     0  0
 14 15  1  0     0  0
 15 16  1  0     0  0
 16 17  1  0     0  0
 17 18  1  0     0  0
 18 19  1  0     0  0
 19 20  1  0     0  0
 20 21  1  0     0  0
 21 22  1  0     0  0
 22 23  1  0     0  0
 23 24  1  0     0  0
 24 25  1  0     0  0
 25 26  1  0     0  0
M  END
> <standard_type>
pIC50

> <# Confs.>
25

> <canonical_smiles>
O=C1C(C(CCCCCCCCCCCCCCC)=O)=C(O)[C@@H](CO)O1

> <standard_relation>
=

> <predicted_activity_value>
5.424812155072339

> <actual_activity_value>
5.657577319177793

> <Compound>
27

> <publication_ID>
nan

> <standard_units>
nM

> hash
13892040024061748084

$$$$
27_
XXILIB    08252103423D 0   0.00000     0.00000

 26 26  0     1  0            999 V2000
    8.6531   -0.2805   -2.2991 O   0  0  0  0  0  2           0  0  0
    5.7368    0.5198   -5.1699 O   0  0  0  0  0  2           0  0  0
    9.7837   -1.3991   -3.9495 O   0  0  0  0  0  2           0  0  0
    7.5519   -1.5174   -6.7262 O   0  0  0  0  0  2           0  0  0
   10.5084    0.3303   -6.0906 O   0  0  0  0  0  2           0  0  0
    8.7122   -0.7314   -3.4307 C   0  0  0  0  0  4           0  0  0
    6.3241   -0.0000   -4.2216 C   0  0  0  0  0  4           0  0  0
    8.1399   -1.2617   -5.5226 C   0  0  0  0  0  4           0  0  0
    9.5175   -1.7564   -5.3126 C   0  0  1  0  0  4           0  0  0
   10.5529   -1.0881   -6.2089 C   0  0  0  0  0  4           0  0  0
    7.6416   -0.6453   -4.4474 C   0  0  0  0  0  4           0  0  0
    5.7546   -0.0000   -2.8157 C   0  0  0  0  0  4           0  0  0
    4.2286    0.0000   -2.8157 C   0  0  0  0  0  4           0  0  0
    3.6402   -0.0000   -1.4079 C   0  0  0  0  0  4           0  0  0
    2.1143    0.0000   -1.4079 C   0  0  0  0  0  4           0  0  0
    1.5259   -0.0000   -0.0000 C   0  0  0  0  0  4           0  0  0
    0.0000    0.0000    0.0000 C   0  0  0  0  0  4           0  0  0
   -0.5884    0.0000    1.4079 C   0  0  0  0  0  4           0  0  0
   -2.1143   -0.0000    1.4079 C   0  0  0  0  0  4           0  0  0
   -2.7027   -0.0000    2.8157 C   0  0  0  0  0  4           0  0  0
   -4.2286   -0.0000    2.8157 C   0  0  0  0  0  4           0  0  0
   -4.8170   -0.0000    4.2236 C   0  0  0  0  0  4           0  0  0
   -6.3429   -0.0000    4.2236 C   0  0  0  0  0  4           0  0  0
   -6.9313   -0.0000    5.6314 C   0  0  0  0  0  4           0  0  0
   -8.4572   -0.0000    5.6314 C   0  0  0  0  0  4           0  0  0
   -9.0528   -0.0000    7.0314 C   0  0  0  0  0  4           0  0  0
  1  6  2  0     0  0
  2  7  2  0     0  0
  3  6  1  0     0  0
  3  9  1  0     0  0
  4  8  1  0     0  0
  5 10  1  0     0  0
  6 11  1  0     0  0
  7 11  1  0     0  0
  7 12  1  0     0  0
  8  9  1  0     0  0
  8 11  2  0     0  0
  9 10  1  0     0  0
 12 13  1  0     0  0
 13 14  1  0     0  0
 14 15  1  0     0  0
 15 16  1  0     0  0
 16 17  1  0     0  0
 17 18  1  0     0  0
 18 19  1  0     0  0
 19 20  1  0     0  0
 20 21  1  0     0  0
 21 22  1  0     0  0
 22 23  1  0     0  0
 23 24  1  0     0  0
 24 25  1  0     0  0
 25 26  1  0     0  0
M  END
> <standard_type>
pIC50

> <# Confs.>
25

> <canonical_smiles>
O=C1C(C(CCCCCCCCCCCCCCC)=O)=C(O)[C@@H](CO)O1

> <standard_relation>
=

> <predicted_activity_value>
5.424812155072339

> <actual_activity_value>
5.657577319177793

> <Compound>
27

> <publication_ID>
nan

> <standard_units>
nM

> hash
13892040024061748084

$$$$
27_
XXILIB    08252103423D 0   0.00000     0.00000

 26 26  0     1  0            999 V2000
    0.5325    4.7697   -5.6984 O   0  0  0  0  0  2           0  0  0
    3.5342    1.8981   -6.0905 O   0  0  0  0  0  2           0  0  0
    0.2367    4.5689   -7.9623 O   0  0  0  0  0  2           0  0  0
    2.3205    1.8554   -8.9621 O   0  0  0  0  0  2           0  0  0
   -1.1912    2.2002   -8.6339 O   0  0  0  0  0  2           0  0  0
    0.7713    4.2143   -6.7576 C   0  0  0  0  0  4           0  0  0
    2.4501    2.4241   -5.8407 C   0  0  0  0  0  4           0  0  0
    1.6318    2.7886   -8.2448 C   0  0  0  0  0  4           0  0  0
    0.7130    3.6814   -8.9832 C   0  0  1  0  0  4           0  0  0
   -0.4770    2.9598   -9.6039 C   0  0  0  0  0  4           0  0  0
    1.6814    3.0627   -6.9383 C   0  0  0  0  0  4           0  0  0
    1.8575    2.4386   -4.4445 C   0  0  0  0  0  4           0  0  0
    2.2801    1.2192   -3.6301 C   0  0  0  0  0  4           0  0  0
    1.6917    1.2192   -2.2222 C   0  0  0  0  0  4           0  0  0
    2.1143    0.0000   -1.4079 C   0  0  0  0  0  4           0  0  0
    1.5259   -0.0000   -0.0000 C   0  0  0  0  0  4           0  0  0
    0.0000    0.0000    0.0000 C   0  0  0  0  0  4           0  0  0
   -0.5884    0.0000    1.4079 C   0  0  0  0  0  4           0  0  0
   -2.1143   -0.0000    1.4079 C   0  0  0  0  0  4           0  0  0
   -2.7027   -0.0000    2.8157 C   0  0  0  0  0  4           0  0  0
   -4.2286   -0.0000    2.8157 C   0  0  0  0  0  4           0  0  0
   -4.8170   -0.0000    4.2236 C   0  0  0  0  0  4           0  0  0
   -6.3429   -0.0000    4.2236 C   0  0  0  0  0  4           0  0  0
   -6.9313   -0.0000    5.6314 C   0  0  0  0  0  4           0  0  0
   -8.4572   -0.0000    5.6314 C   0  0  0  0  0  4           0  0  0
   -9.0528   -0.0000    7.0314 C   0  0  0  0  0  4           0  0  0
  1  6  2  0     0  0
  2  7  2  0     0  0
  3  6  1  0     0  0
  3  9  1  0     0  0
  4  8  1  0     0  0
  5 10  1  0     0  0
  6 11  1  0     0  0
  7 11  1  0     0  0
  7 12  1  0     0  0
  8  9  1  0     0  0
  8 11  2  0     0  0
  9 10  1  0     0  0
 12 13  1  0     0  0
 13 14  1  0     0  0
 14 15  1  0     0  0
 15 16  1  0     0  0
 16 17  1  0     0  0
 17 18  1  0     0  0
 18 19  1  0     0  0
 19 20  1  0     0  0
 20 21  1  0     0  0
 21 22  1  0     0  0
 22 23  1  0     0  0
 23 24  1  0     0  0
 24 25  1  0     0  0
 25 26  1  0     0  0
M  END
> <standard_type>
pIC50

> <# Confs.>
25

> <canonical_smiles>
O=C1C(C(CCCCCCCCCCCCCCC)=O)=C(O)[C@@H](CO)O1

> <standard_relation>
=

> <predicted_activity_value>
5.424812155072339

> <actual_activity_value>
5.657577319177793

> <Compound>
27

> <publication_ID>
nan

> <standard_units>
nM

> hash
13892040024061748084

$$$$
27_
XXILIB    08252103423D 0   0.00000     0.00000

 26 26  0     1  0            999 V2000
    8.6534   -2.1516    0.8821 O   0  0  0  0  0  2           0  0  0
    5.7368   -4.2174    3.0351 O   0  0  0  0  0  2           0  0  0
    9.7831   -4.1426    0.7697 O   0  0  0  0  0  2           0  0  0
    7.5714   -6.5760    2.1450 O   0  0  0  0  0  2           0  0  0
    8.6443   -5.8943   -1.1630 O   0  0  0  0  0  2           0  0  0
    8.7087   -3.3555    1.0684 C   0  0  0  0  0  4           0  0  0
    6.3241   -3.6560    2.1108 C   0  0  0  0  0  4           0  0  0
    8.1249   -5.4272    1.6617 C   0  0  0  0  0  4           0  0  0
    9.4869   -5.5084    1.0916 C   0  0  1  0  0  4           0  0  0
    9.5711   -6.3442   -0.1798 C   0  0  0  0  0  4           0  0  0
    7.6329   -4.1853    1.6526 C   0  0  0  0  0  4           0  0  0
    5.7546   -2.4385    1.4079 C   0  0  0  0  0  4           0  0  0
    4.2286   -2.4385    1.4079 C   0  0  0  0  0  4           0  0  0
    3.6402   -1.2192    0.7039 C   0  0  0  0  0  4           0  0  0
    2.1143   -1.2192    0.7039 C   0  0  0  0  0  4           0  0  0
    1.5259    0.0000    0.0000 C   0  0  0  0  0  4           0  0  0
    0.0000    0.0000    0.0000 C   0  0  0  0  0  4           0  0  0
   -0.5884    0.0000    1.4079 C   0  0  0  0  0  4           0  0  0
   -2.1143   -0.0000    1.4079 C   0  0  0  0  0  4           0  0  0
   -2.7027   -0.0000    2.8157 C   0  0  0  0  0  4           0  0  0
   -4.2286   -0.0000    2.8157 C   0  0  0  0  0  4           0  0  0
   -4.8170   -0.0000    4.2236 C   0  0  0  0  0  4           0  0  0
   -6.3429   -0.0000    4.2236 C   0  0  0  0  0  4           0  0  0
   -6.9313   -0.0000    5.6314 C   0  0  0  0  0  4           0  0  0
   -8.4572   -0.0000    5.6314 C   0  0  0  0  0  4           0  0  0
   -9.0528   -0.0000    7.0314 C   0  0  0  0  0  4           0  0  0
  1  6  2  0     0  0
  2  7  2  0     0  0
  3  6  1  0     0  0
  3  9  1  0     0  0
  4  8  1  0     0  0
  5 10  1  0     0  0
  6 11  1  0     0  0
  7 11  1  0     0  0
  7 12  1  0     0  0
  8  9  1  0     0  0
  8 11  2  0     0  0
  9 10  1  0     0  0
 12 13  1  0     0  0
 13 14  1  0     0  0
 14 15  1  0     0  0
 15 16  1  0     0  0
 16 17  1  0     0  0
 17 18  1  0     0  0
 18 19  1  0     0  0
 19 20  1  0     0  0
 20 21  1  0     0  0
 21 22  1  0     0  0
 22 23  1  0     0  0
 23 24  1  0     0  0
 24 25  1  0     0  0
 25 26  1  0     0  0
M  END
> <standard_type>
pIC50

> <# Confs.>
25

> <canonical_smiles>
O=C1C(C(CCCCCCCCCCCCCCC)=O)=C(O)[C@@H](CO)O1

> <standard_relation>
=

> <predicted_activity_value>
5.424812155072339

> <actual_activity_value>
5.657577319177793

> <Compound>
27

> <publication_ID>
nan

> <standard_units>
nM

> hash
13892040024061748084

$$$$
26_
XXILIB    08252103423D 0   0.00000     0.00000

 23 26  0     1  0            999 V2000
   -0.5398   -2.3885   -2.5645 O   0  0  0  0  0  2           0  0  0
    0.2716    2.1260   -5.2574 O   0  0  0  0  0  2           0  0  0
   -0.4176    2.3801   -2.6119 O   0  0  0  0  0  2           0  0  0
    0.2820   -2.5728   -5.1791 O   0  0  0  0  0  2           0  0  0
   -0.7456    0.0000    1.1470 N   0  0  0  0  0  3           0  0  0
   -2.0850    0.0321    0.8442 C   0  0  0  0  0  4           0  0  0
    0.0000    0.0000    0.0000 C   0  0  0  0  0  4           0  0  0
   -2.1949    0.0394   -0.5495 C   0  0  0  0  0  4           0  0  0
   -0.8600    0.0113   -1.0827 C   0  0  0  0  0  4           0  0  0
   -3.1948    0.0517    1.6978 C   0  0  0  0  0  4           0  0  0
   -3.4935    0.0549   -1.1085 C   0  0  0  0  0  4           0  0  0
   -4.4634    0.0748    1.1152 C   0  0  0  0  0  4           0  0  0
   -4.6130    0.0751   -0.2679 C   0  0  0  0  0  4           0  0  0
   -0.3213   -1.3285   -3.1464 C   0  0  0  0  0  4           0  0  0
    0.1049    1.0940   -4.6148 C   0  0  0  0  0  4           0  0  0
   -0.2871    1.1263   -3.1834 C   0  0  0  0  0  4           0  0  0
    0.1021   -1.3487   -4.5673 C   0  0  0  0  0  4           0  0  0
   -0.4849    0.0023   -2.4677 C   0  0  0  0  0  4           0  0  0
    1.5636   -0.0000    0.0000 C   0  0  2  0  0  4           0  0  0
    0.2975   -0.2196   -5.2467 C   0  0  0  0  0  4           0  0  0
    2.2611   -1.1642   -0.6721 C   0  0  0  0  0  4           0  0  0
    2.2529   -1.0679    0.8236 C   0  0  0  0  0  4           0  0  0
    2.2148    1.3532   -0.0826 C   0  0  0  0  0  4           0  0  0
  1 14  2  0     0  0
  2 15  2  0     0  0
  3 16  1  0     0  0
  4 17  1  0     0  0
  5  6  1  0     0  0
  5  7  1  0     0  0
  6  8  2  0     0  0
  6 10  1  0     0  0
  7  9  2  0     0  0
  7 19  1  0     0  0
  8  9  1  0     0  0
  8 11  1  0     0  0
  9 18  1  0     0  0
 10 12  2  0     0  0
 11 13  2  0     0  0
 12 13  1  0     0  0
 14 17  1  0     0  0
 14 18  1  0     0  0
 15 16  1  0     0  0
 15 20  1  0     0  0
 16 18  2  0     0  0
 17 20  2  0     0  0
 19 21  1  0     0  0
 19 22  1  0     0  0
 19 23  1  0     0  0
 21 22  1  0     0  0
M  END
> <standard_type>
pIC50

> <# Confs.>
12

> <canonical_smiles>
CC1(CC1)C2=C(C(C(C(O)=C3)=O)=C(O)C3=O)C4=C(N2)C=CC=C4

> <standard_relation>
=

> <predicted_activity_value>
5.424812155072339

> <actual_activity_value>
5.769551078621726

> <Compound>
26

> <publication_ID>
nan

> <standard_units>
nM

> hash
1789767038399511975

$$$$
26_
XXILIB    08252103423D 0   0.00000     0.00000

 23 26  0     1  0            999 V2000
   -0.3807    2.3919   -2.5525 O   0  0  0  0  0  2           0  0  0
    0.2631   -2.1576   -5.2318 O   0  0  0  0  0  2           0  0  0
   -0.4780   -2.3774   -2.5972 O   0  0  0  0  0  2           0  0  0
    0.2300    2.5417   -5.2265 O   0  0  0  0  0  2           0  0  0
   -0.7456    0.0000    1.1470 N   0  0  0  0  0  3           0  0  0
   -2.0850    0.0321    0.8442 C   0  0  0  0  0  4           0  0  0
    0.0000    0.0000    0.0000 C   0  0  0  0  0  4           0  0  0
   -2.1949    0.0394   -0.5495 C   0  0  0  0  0  4           0  0  0
   -0.8600    0.0113   -1.0827 C   0  0  0  0  0  4           0  0  0
   -3.1948    0.0517    1.6978 C   0  0  0  0  0  4           0  0  0
   -3.4935    0.0549   -1.1085 C   0  0  0  0  0  4           0  0  0
   -4.4634    0.0748    1.1152 C   0  0  0  0  0  4           0  0  0
   -4.6130    0.0751   -0.2679 C   0  0  0  0  0  4           0  0  0
   -0.2791    1.3241   -3.1522 C   0  0  0  0  0  4           0  0  0
    0.0861   -1.1174   -4.6055 C   0  0  0  0  0  4           0  0  0
   -0.2980   -1.1310   -3.1716 C   0  0  0  0  0  4           0  0  0
    0.0725    1.3257   -4.5927 C   0  0  0  0  0  4           0  0  0
   -0.4849    0.0023   -2.4677 C   0  0  0  0  0  4           0  0  0
    1.5636   -0.0000    0.0000 C   0  0  2  0  0  4           0  0  0
    0.2430    0.1878   -5.2641 C   0  0  0  0  0  4           0  0  0
    2.2611   -1.1642   -0.6721 C   0  0  0  0  0  4           0  0  0
    2.2529   -1.0679    0.8236 C   0  0  0  0  0  4           0  0  0
    2.2148    1.3532   -0.0826 C   0  0  0  0  0  4           0  0  0
  1 14  2  0     0  0
  2 15  2  0     0  0
  3 16  1  0     0  0
  4 17  1  0     0  0
  5  6  1  0     0  0
  5  7  1  0     0  0
  6  8  2  0     0  0
  6 10  1  0     0  0
  7  9  2  0     0  0
  7 19  1  0     0  0
  8  9  1  0     0  0
  8 11  1  0     0  0
  9 18  1  0     0  0
 10 12  2  0     0  0
 11 13  2  0     0  0
 12 13  1  0     0  0
 14 17  1  0     0  0
 14 18  1  0     0  0
 15 16  1  0     0  0
 15 20  1  0     0  0
 16 18  2  0     0  0
 17 20  2  0     0  0
 19 21  1  0     0  0
 19 22  1  0     0  0
 19 23  1  0     0  0
 21 22  1  0     0  0
M  END
> <standard_type>
pIC50

> <# Confs.>
12

> <canonical_smiles>
CC1(CC1)C2=C(C(C(C(O)=C3)=O)=C(O)C3=O)C4=C(N2)C=CC=C4

> <standard_relation>
=

> <predicted_activity_value>
5.424812155072339

> <actual_activity_value>
5.769551078621726

> <Compound>
26

> <publication_ID>
nan

> <standard_units>
nM

> hash
1789767038399511975

$$$$
26_
XXILIB    08252103423D 0   0.00000     0.00000

 23 26  0     1  0            999 V2000
   -0.3807    2.3919   -2.5525 O   0  0  0  0  0  2           0  0  0
    0.2631   -2.1576   -5.2318 O   0  0  0  0  0  2           0  0  0
   -0.4780   -2.3774   -2.5972 O   0  0  0  0  0  2           0  0  0
    0.2300    2.5417   -5.2265 O   0  0  0  0  0  2           0  0  0
   -0.7456    0.0000    1.1470 N   0  0  0  0  0  3           0  0  0
   -2.0850    0.0321    0.8442 C   0  0  0  0  0  4           0  0  0
    0.0000    0.0000    0.0000 C   0  0  0  0  0  4           0  0  0
   -2.1949    0.0394   -0.5495 C   0  0  0  0  0  4           0  0  0
   -0.8600    0.0113   -1.0827 C   0  0  0  0  0  4           0  0  0
   -3.1948    0.0517    1.6978 C   0  0  0  0  0  4           0  0  0
   -3.4935    0.0549   -1.1085 C   0  0  0  0  0  4           0  0  0
   -4.4634    0.0748    1.1152 C   0  0  0  0  0  4           0  0  0
   -4.6130    0.0751   -0.2679 C   0  0  0  0  0  4           0  0  0
   -0.2791    1.3241   -3.1522 C   0  0  0  0  0  4           0  0  0
    0.0861   -1.1174   -4.6055 C   0  0  0  0  0  4           0  0  0
   -0.2980   -1.1310   -3.1716 C   0  0  0  0  0  4           0  0  0
    0.0725    1.3257   -4.5927 C   0  0  0  0  0  4           0  0  0
   -0.4849    0.0023   -2.4677 C   0  0  0  0  0  4           0  0  0
    1.5636    0.0000   -0.0000 C   0  0  2  0  0  4           0  0  0
    0.2430    0.1878   -5.2641 C   0  0  0  0  0  4           0  0  0
    2.2611    1.1642    0.6721 C   0  0  0  0  0  4           0  0  0
    2.2529    1.0679   -0.8236 C   0  0  0  0  0  4           0  0  0
    2.2148   -1.3532    0.0826 C   0  0  0  0  0  4           0  0  0
  1 14  2  0     0  0
  2 15  2  0     0  0
  3 16  1  0     0  0
  4 17  1  0     0  0
  5  6  1  0     0  0
  5  7  1  0     0  0
  6  8  2  0     0  0
  6 10  1  0     0  0
  7  9  2  0     0  0
  7 19  1  0     0  0
  8  9  1  0     0  0
  8 11  1  0     0  0
  9 18  1  0     0  0
 10 12  2  0     0  0
 11 13  2  0     0  0
 12 13  1  0     0  0
 14 17  1  0     0  0
 14 18  1  0     0  0
 15 16  1  0     0  0
 15 20  1  0     0  0
 16 18  2  0     0  0
 17 20  2  0     0  0
 19 21  1  0     0  0
 19 22  1  0     0  0
 19 23  1  0     0  0
 21 22  1  0     0  0
M  END
> <standard_type>
pIC50

> <# Confs.>
12

> <canonical_smiles>
CC1(CC1)C2=C(C(C(C(O)=C3)=O)=C(O)C3=O)C4=C(N2)C=CC=C4

> <standard_relation>
=

> <predicted_activity_value>
5.424812155072339

> <actual_activity_value>
5.769551078621726

> <Compound>
26

> <publication_ID>
nan

> <standard_units>
nM

> hash
1789767038399511975

$$$$
26_
XXILIB    08252103423D 0   0.00000     0.00000

 23 26  0     1  0            999 V2000
   -0.5398   -2.3885   -2.5645 O   0  0  0  0  0  2           0  0  0
    0.2716    2.1260   -5.2574 O   0  0  0  0  0  2           0  0  0
   -0.4176    2.3801   -2.6119 O   0  0  0  0  0  2           0  0  0
    0.2820   -2.5728   -5.1791 O   0  0  0  0  0  2           0  0  0
   -0.7456    0.0000    1.1470 N   0  0  0  0  0  3           0  0  0
   -2.0850    0.0321    0.8442 C   0  0  0  0  0  4           0  0  0
    0.0000    0.0000    0.0000 C   0  0  0  0  0  4           0  0  0
   -2.1949    0.0394   -0.5495 C   0  0  0  0  0  4           0  0  0
   -0.8600    0.0113   -1.0827 C   0  0  0  0  0  4           0  0  0
   -3.1948    0.0517    1.6978 C   0  0  0  0  0  4           0  0  0
   -3.4935    0.0549   -1.1085 C   0  0  0  0  0  4           0  0  0
   -4.4634    0.0748    1.1152 C   0  0  0  0  0  4           0  0  0
   -4.6130    0.0751   -0.2679 C   0  0  0  0  0  4           0  0  0
   -0.3213   -1.3285   -3.1464 C   0  0  0  0  0  4           0  0  0
    0.1049    1.0940   -4.6148 C   0  0  0  0  0  4           0  0  0
   -0.2871    1.1263   -3.1834 C   0  0  0  0  0  4           0  0  0
    0.1021   -1.3487   -4.5673 C   0  0  0  0  0  4           0  0  0
   -0.4849    0.0023   -2.4677 C   0  0  0  0  0  4           0  0  0
    1.5636    0.0000   -0.0000 C   0  0  2  0  0  4           0  0  0
    0.2975   -0.2196   -5.2467 C   0  0  0  0  0  4           0  0  0
    2.2611    1.1642    0.6721 C   0  0  0  0  0  4           0  0  0
    2.2529    1.0679   -0.8236 C   0  0  0  0  0  4           0  0  0
    2.2148   -1.3532    0.0826 C   0  0  0  0  0  4           0  0  0
  1 14  2  0     0  0
  2 15  2  0     0  0
  3 16  1  0     0  0
  4 17  1  0     0  0
  5  6  1  0     0  0
  5  7  1  0     0  0
  6  8  2  0     0  0
  6 10  1  0     0  0
  7  9  2  0     0  0
  7 19  1  0     0  0
  8  9  1  0     0  0
  8 11  1  0     0  0
  9 18  1  0     0  0
 10 12  2  0     0  0
 11 13  2  0     0  0
 12 13  1  0     0  0
 14 17  1  0     0  0
 14 18  1  0     0  0
 15 16  1  0     0  0
 15 20  1  0     0  0
 16 18  2  0     0  0
 17 20  2  0     0  0
 19 21  1  0     0  0
 19 22  1  0     0  0
 19 23  1  0     0  0
 21 22  1  0     0  0
M  END
> <standard_type>
pIC50

> <# Confs.>
12

> <canonical_smiles>
CC1(CC1)C2=C(C(C(C(O)=C3)=O)=C(O)C3=O)C4=C(N2)C=CC=C4

> <standard_relation>
=

> <predicted_activity_value>
5.424812155072339

> <actual_activity_value>
5.769551078621726

> <Compound>
26

> <publication_ID>
nan

> <standard_units>
nM

> hash
1789767038399511975

$$$$
26_
XXILIB    08252103423D 0   0.00000     0.00000

 23 26  0     1  0            999 V2000
    0.6243   -2.1075   -2.2509 O   0  0  0  0  0  2           0  0  0
   -0.7627    1.8394   -5.5357 O   0  0  0  0  0  2           0  0  0
   -1.5697    2.0751   -2.9220 O   0  0  0  0  0  2           0  0  0
    1.5127   -2.2145   -4.8481 O   0  0  0  0  0  2           0  0  0
   -0.7456    0.0000    1.1470 N   0  0  0  0  0  3           0  0  0
   -2.0850    0.0321    0.8442 C   0  0  0  0  0  4           0  0  0
    0.0000    0.0000    0.0000 C   0  0  0  0  0  4           0  0  0
   -2.1949    0.0394   -0.5495 C   0  0  0  0  0  4           0  0  0
   -0.8600    0.0113   -1.0827 C   0  0  0  0  0  4           0  0  0
   -3.1948    0.0517    1.6978 C   0  0  0  0  0  4           0  0  0
   -3.4935    0.0549   -1.1085 C   0  0  0  0  0  4           0  0  0
   -4.4634    0.0748    1.1152 C   0  0  0  0  0  4           0  0  0
   -4.6130    0.0751   -0.2679 C   0  0  0  0  0  4           0  0  0
    0.3216   -1.1606   -2.9733 C   0  0  0  0  0  4           0  0  0
   -0.4300    0.9498   -4.7587 C   0  0  0  0  0  4           0  0  0
   -0.8326    0.9769   -3.3302 C   0  0  0  0  0  4           0  0  0
    0.7455   -1.1608   -4.3942 C   0  0  0  0  0  4           0  0  0
   -0.4849    0.0023   -2.4677 C   0  0  0  0  0  4           0  0  0
    1.5636    0.0000    0.0000 C   0  0  2  0  0  4           0  0  0
    0.3922   -0.1780   -5.2214 C   0  0  0  0  0  4           0  0  0
    2.2611   -1.3442    0.0000 C   0  0  0  0  0  4           0  0  0
    2.2529   -0.5130    1.2472 C   0  0  0  0  0  4           0  0  0
    2.2148    1.1306   -0.7481 C   0  0  0  0  0  4           0  0  0
  1 14  2  0     0  0
  2 15  2  0     0  0
  3 16  1  0     0  0
  4 17  1  0     0  0
  5  6  1  0     0  0
  5  7  1  0     0  0
  6  8  2  0     0  0
  6 10  1  0     0  0
  7  9  2  0     0  0
  7 19  1  0     0  0
  8  9  1  0     0  0
  8 11  1  0     0  0
  9 18  1  0     0  0
 10 12  2  0     0  0
 11 13  2  0     0  0
 12 13  1  0     0  0
 14 17  1  0     0  0
 14 18  1  0     0  0
 15 16  1  0     0  0
 15 20  1  0     0  0
 16 18  2  0     0  0
 17 20  2  0     0  0
 19 21  1  0     0  0
 19 22  1  0     0  0
 19 23  1  0     0  0
 21 22  1  0     0  0
M  END
> <standard_type>
pIC50

> <# Confs.>
12

> <canonical_smiles>
CC1(CC1)C2=C(C(C(C(O)=C3)=O)=C(O)C3=O)C4=C(N2)C=CC=C4

> <standard_relation>
=

> <predicted_activity_value>
5.424812155072339

> <actual_activity_value>
5.769551078621726

> <Compound>
26

> <publication_ID>
nan

> <standard_units>
nM

> hash
1789767038399511975

$$$$
26_
XXILIB    08252103423D 0   0.00000     0.00000

 23 26  0     1  0            999 V2000
    0.7621    2.0325   -2.2406 O   0  0  0  0  0  2           0  0  0
   -0.7700   -1.8703   -5.5135 O   0  0  0  0  0  2           0  0  0
   -1.6219   -2.0451   -2.9093 O   0  0  0  0  0  2           0  0  0
    1.4677    2.2147   -4.8891 O   0  0  0  0  0  2           0  0  0
   -0.7456    0.0000    1.1470 N   0  0  0  0  0  3           0  0  0
   -2.0850    0.0321    0.8442 C   0  0  0  0  0  4           0  0  0
    0.0000    0.0000    0.0000 C   0  0  0  0  0  4           0  0  0
   -2.1949    0.0394   -0.5495 C   0  0  0  0  0  4           0  0  0
   -0.8600    0.0113   -1.0827 C   0  0  0  0  0  4           0  0  0
   -3.1948    0.0517    1.6978 C   0  0  0  0  0  4           0  0  0
   -3.4935    0.0549   -1.1085 C   0  0  0  0  0  4           0  0  0
   -4.4634    0.0748    1.1152 C   0  0  0  0  0  4           0  0  0
   -4.6130    0.0751   -0.2679 C   0  0  0  0  0  4           0  0  0
    0.3581    1.1366   -2.9784 C   0  0  0  0  0  4           0  0  0
   -0.4463   -0.9653   -4.7507 C   0  0  0  0  0  4           0  0  0
   -0.8420   -0.9779   -3.3200 C   0  0  0  0  0  4           0  0  0
    0.7199    1.1554   -4.4163 C   0  0  0  0  0  4           0  0  0
   -0.4849    0.0023   -2.4677 C   0  0  0  0  0  4           0  0  0
    1.5636   -0.0000    0.0000 C   0  0  2  0  0  4           0  0  0
    0.3450    0.1748   -5.2364 C   0  0  0  0  0  4           0  0  0
    2.2611   -0.6721   -1.1642 C   0  0  0  0  0  4           0  0  0
    2.2529   -1.3366    0.1793 C   0  0  0  0  0  4           0  0  0
    2.2148    1.2132    0.6050 C   0  0  0  0  0  4           0  0  0
  1 14  2  0     0  0
  2 15  2  0     0  0
  3 16  1  0     0  0
  4 17  1  0     0  0
  5  6  1  0     0  0
  5  7  1  0     0  0
  6  8  2  0     0  0
  6 10  1  0     0  0
  7  9  2  0     0  0
  7 19  1  0     0  0
  8  9  1  0     0  0
  8 11  1  0     0  0
  9 18  1  0     0  0
 10 12  2  0     0  0
 11 13  2  0     0  0
 12 13  1  0     0  0
 14 17  1  0     0  0
 14 18  1  0     0  0
 15 16  1  0     0  0
 15 20  1  0     0  0
 16 18  2  0     0  0
 17 20  2  0     0  0
 19 21  1  0     0  0
 19 22  1  0     0  0
 19 23  1  0     0  0
 21 22  1  0     0  0
M  END
> <standard_type>
pIC50

> <# Confs.>
12

> <canonical_smiles>
CC1(CC1)C2=C(C(C(C(O)=C3)=O)=C(O)C3=O)C4=C(N2)C=CC=C4

> <standard_relation>
=

> <predicted_activity_value>
5.424812155072339

> <actual_activity_value>
5.769551078621726

> <Compound>
26

> <publication_ID>
nan

> <standard_units>
nM

> hash
1789767038399511975

$$$$
26_
XXILIB    08252103423D 0   0.00000     0.00000

 23 26  0     1  0            999 V2000
    0.7621    2.0325   -2.2406 O   0  0  0  0  0  2           0  0  0
   -0.7700   -1.8703   -5.5135 O   0  0  0  0  0  2           0  0  0
   -1.6219   -2.0451   -2.9093 O   0  0  0  0  0  2           0  0  0
    1.4677    2.2147   -4.8891 O   0  0  0  0  0  2           0  0  0
   -0.7456    0.0000    1.1470 N   0  0  0  0  0  3           0  0  0
   -2.0850    0.0321    0.8442 C   0  0  0  0  0  4           0  0  0
    0.0000    0.0000    0.0000 C   0  0  0  0  0  4           0  0  0
   -2.1949    0.0394   -0.5495 C   0  0  0  0  0  4           0  0  0
   -0.8600    0.0113   -1.0827 C   0  0  0  0  0  4           0  0  0
   -3.1948    0.0517    1.6978 C   0  0  0  0  0  4           0  0  0
   -3.4935    0.0549   -1.1085 C   0  0  0  0  0  4           0  0  0
   -4.4634    0.0748    1.1152 C   0  0  0  0  0  4           0  0  0
   -4.6130    0.0751   -0.2679 C   0  0  0  0  0  4           0  0  0
    0.3581    1.1366   -2.9784 C   0  0  0  0  0  4           0  0  0
   -0.4463   -0.9653   -4.7507 C   0  0  0  0  0  4           0  0  0
   -0.8420   -0.9779   -3.3200 C   0  0  0  0  0  4           0  0  0
    0.7199    1.1554   -4.4163 C   0  0  0  0  0  4           0  0  0
   -0.4849    0.0023   -2.4677 C   0  0  0  0  0  4           0  0  0
    1.5636    0.0000   -0.0000 C   0  0  2  0  0  4           0  0  0
    0.3450    0.1748   -5.2364 C   0  0  0  0  0  4           0  0  0
    2.2611    0.6721    1.1642 C   0  0  0  0  0  4           0  0  0
    2.2529    1.3366   -0.1793 C   0  0  0  0  0  4           0  0  0
    2.2148   -1.2132   -0.6050 C   0  0  0  0  0  4           0  0  0
  1 14  2  0     0  0
  2 15  2  0     0  0
  3 16  1  0     0  0
  4 17  1  0     0  0
  5  6  1  0     0  0
  5  7  1  0     0  0
  6  8  2  0     0  0
  6 10  1  0     0  0
  7  9  2  0     0  0
  7 19  1  0     0  0
  8  9  1  0     0  0
  8 11  1  0     0  0
  9 18  1  0     0  0
 10 12  2  0     0  0
 11 13  2  0     0  0
 12 13  1  0     0  0
 14 17  1  0     0  0
 14 18  1  0     0  0
 15 16  1  0     0  0
 15 20  1  0     0  0
 16 18  2  0     0  0
 17 20  2  0     0  0
 19 21  1  0     0  0
 19 22  1  0     0  0
 19 23  1  0     0  0
 21 22  1  0     0  0
M  END
> <standard_type>
pIC50

> <# Confs.>
12

> <canonical_smiles>
CC1(CC1)C2=C(C(C(C(O)=C3)=O)=C(O)C3=O)C4=C(N2)C=CC=C4

> <standard_relation>
=

> <predicted_activity_value>
5.424812155072339

> <actual_activity_value>
5.769551078621726

> <Compound>
26

> <publication_ID>
nan

> <standard_units>
nM

> hash
1789767038399511975

$$$$
26_
XXILIB    08252103423D 0   0.00000     0.00000

 23 26  0     1  0            999 V2000
    0.6243   -2.1075   -2.2509 O   0  0  0  0  0  2           0  0  0
   -0.7627    1.8394   -5.5357 O   0  0  0  0  0  2           0  0  0
   -1.5697    2.0751   -2.9220 O   0  0  0  0  0  2           0  0  0
    1.5127   -2.2145   -4.8481 O   0  0  0  0  0  2           0  0  0
   -0.7456    0.0000    1.1470 N   0  0  0  0  0  3           0  0  0
   -2.0850    0.0321    0.8442 C   0  0  0  0  0  4           0  0  0
    0.0000    0.0000    0.0000 C   0  0  0  0  0  4           0  0  0
   -2.1949    0.0394   -0.5495 C   0  0  0  0  0  4           0  0  0
   -0.8600    0.0113   -1.0827 C   0  0  0  0  0  4           0  0  0
   -3.1948    0.0517    1.6978 C   0  0  0  0  0  4           0  0  0
   -3.4935    0.0549   -1.1085 C   0  0  0  0  0  4           0  0  0
   -4.4634    0.0748    1.1152 C   0  0  0  0  0  4           0  0  0
   -4.6130    0.0751   -0.2679 C   0  0  0  0  0  4           0  0  0
    0.3216   -1.1606   -2.9733 C   0  0  0  0  0  4           0  0  0
   -0.4300    0.9498   -4.7587 C   0  0  0  0  0  4           0  0  0
   -0.8326    0.9769   -3.3302 C   0  0  0  0  0  4           0  0  0
    0.7455   -1.1608   -4.3942 C   0  0  0  0  0  4           0  0  0
   -0.4849    0.0023   -2.4677 C   0  0  0  0  0  4           0  0  0
    1.5636   -0.0000   -0.0000 C   0  0  2  0  0  4           0  0  0
    0.3922   -0.1780   -5.2214 C   0  0  0  0  0  4           0  0  0
    2.2611    1.3442    0.0000 C   0  0  0  0  0  4           0  0  0
    2.2529    0.5130   -1.2472 C   0  0  0  0  0  4           0  0  0
    2.2148   -1.1306    0.7481 C   0  0  0  0  0  4           0  0  0
  1 14  2  0     0  0
  2 15  2  0     0  0
  3 16  1  0     0  0
  4 17  1  0     0  0
  5  6  1  0     0  0
  5  7  1  0     0  0
  6  8  2  0     0  0
  6 10  1  0     0  0
  7  9  2  0     0  0
  7 19  1  0     0  0
  8  9  1  0     0  0
  8 11  1  0     0  0
  9 18  1  0     0  0
 10 12  2  0     0  0
 11 13  2  0     0  0
 12 13  1  0     0  0
 14 17  1  0     0  0
 14 18  1  0     0  0
 15 16  1  0     0  0
 15 20  1  0     0  0
 16 18  2  0     0  0
 17 20  2  0     0  0
 19 21  1  0     0  0
 19 22  1  0     0  0
 19 23  1  0     0  0
 21 22  1  0     0  0
M  END
> <standard_type>
pIC50

> <# Confs.>
12

> <canonical_smiles>
CC1(CC1)C2=C(C(C(C(O)=C3)=O)=C(O)C3=O)C4=C(N2)C=CC=C4

> <standard_relation>
=

> <predicted_activity_value>
5.424812155072339

> <actual_activity_value>
5.769551078621726

> <Compound>
26

> <publication_ID>
nan

> <standard_units>
nM

> hash
1789767038399511975

$$$$
26_
XXILIB    08252103423D 0   0.00000     0.00000

 23 26  0     1  0            999 V2000
   -0.5398   -2.3885   -2.5645 O   0  0  0  0  0  2           0  0  0
    0.2716    2.1260   -5.2574 O   0  0  0  0  0  2           0  0  0
   -0.4176    2.3801   -2.6119 O   0  0  0  0  0  2           0  0  0
    0.2820   -2.5728   -5.1791 O   0  0  0  0  0  2           0  0  0
   -0.7456    0.0000    1.1470 N   0  0  0  0  0  3           0  0  0
   -2.0850    0.0321    0.8442 C   0  0  0  0  0  4           0  0  0
    0.0000    0.0000    0.0000 C   0  0  0  0  0  4           0  0  0
   -2.1949    0.0394   -0.5495 C   0  0  0  0  0  4           0  0  0
   -0.8600    0.0113   -1.0827 C   0  0  0  0  0  4           0  0  0
   -3.1948    0.0517    1.6978 C   0  0  0  0  0  4           0  0  0
   -3.4935    0.0549   -1.1085 C   0  0  0  0  0  4           0  0  0
   -4.4634    0.0748    1.1152 C   0  0  0  0  0  4           0  0  0
   -4.6130    0.0751   -0.2679 C   0  0  0  0  0  4           0  0  0
   -0.3213   -1.3285   -3.1464 C   0  0  0  0  0  4           0  0  0
    0.1049    1.0940   -4.6148 C   0  0  0  0  0  4           0  0  0
   -0.2871    1.1263   -3.1834 C   0  0  0  0  0  4           0  0  0
    0.1021   -1.3487   -4.5673 C   0  0  0  0  0  4           0  0  0
   -0.4849    0.0023   -2.4677 C   0  0  0  0  0  4           0  0  0
    1.5636    0.0000    0.0000 C   0  0  2  0  0  4           0  0  0
    0.2975   -0.2196   -5.2467 C   0  0  0  0  0  4           0  0  0
    2.2611   -0.6721    1.1642 C   0  0  0  0  0  4           0  0  0
    2.2529    0.8236    1.0679 C   0  0  0  0  0  4           0  0  0
    2.2148   -0.0826   -1.3532 C   0  0  0  0  0  4           0  0  0
  1 14  2  0     0  0
  2 15  2  0     0  0
  3 16  1  0     0  0
  4 17  1  0     0  0
  5  6  1  0     0  0
  5  7  1  0     0  0
  6  8  2  0     0  0
  6 10  1  0     0  0
  7  9  2  0     0  0
  7 19  1  0     0  0
  8  9  1  0     0  0
  8 11  1  0     0  0
  9 18  1  0     0  0
 10 12  2  0     0  0
 11 13  2  0     0  0
 12 13  1  0     0  0
 14 17  1  0     0  0
 14 18  1  0     0  0
 15 16  1  0     0  0
 15 20  1  0     0  0
 16 18  2  0     0  0
 17 20  2  0     0  0
 19 21  1  0     0  0
 19 22  1  0     0  0
 19 23  1  0     0  0
 21 22  1  0     0  0
M  END
> <standard_type>
pIC50

> <# Confs.>
12

> <canonical_smiles>
CC1(CC1)C2=C(C(C(C(O)=C3)=O)=C(O)C3=O)C4=C(N2)C=CC=C4

> <standard_relation>
=

> <predicted_activity_value>
5.424812155072339

> <actual_activity_value>
5.769551078621726

> <Compound>
26

> <publication_ID>
nan

> <standard_units>
nM

> hash
1789767038399511975

$$$$
26_
XXILIB    08252103423D 0   0.00000     0.00000

 23 26  0     1  0            999 V2000
   -0.3807    2.3919   -2.5525 O   0  0  0  0  0  2           0  0  0
    0.2631   -2.1576   -5.2318 O   0  0  0  0  0  2           0  0  0
   -0.4780   -2.3774   -2.5972 O   0  0  0  0  0  2           0  0  0
    0.2300    2.5417   -5.2265 O   0  0  0  0  0  2           0  0  0
   -0.7456    0.0000    1.1470 N   0  0  0  0  0  3           0  0  0
   -2.0850    0.0321    0.8442 C   0  0  0  0  0  4           0  0  0
    0.0000    0.0000    0.0000 C   0  0  0  0  0  4           0  0  0
   -2.1949    0.0394   -0.5495 C   0  0  0  0  0  4           0  0  0
   -0.8600    0.0113   -1.0827 C   0  0  0  0  0  4           0  0  0
   -3.1948    0.0517    1.6978 C   0  0  0  0  0  4           0  0  0
   -3.4935    0.0549   -1.1085 C   0  0  0  0  0  4           0  0  0
   -4.4634    0.0748    1.1152 C   0  0  0  0  0  4           0  0  0
   -4.6130    0.0751   -0.2679 C   0  0  0  0  0  4           0  0  0
   -0.2791    1.3241   -3.1522 C   0  0  0  0  0  4           0  0  0
    0.0861   -1.1174   -4.6055 C   0  0  0  0  0  4           0  0  0
   -0.2980   -1.1310   -3.1716 C   0  0  0  0  0  4           0  0  0
    0.0725    1.3257   -4.5927 C   0  0  0  0  0  4           0  0  0
   -0.4849    0.0023   -2.4677 C   0  0  0  0  0  4           0  0  0
    1.5636    0.0000    0.0000 C   0  0  2  0  0  4           0  0  0
    0.2430    0.1878   -5.2641 C   0  0  0  0  0  4           0  0  0
    2.2611   -0.6721    1.1642 C   0  0  0  0  0  4           0  0  0
    2.2529    0.8236    1.0679 C   0  0  0  0  0  4           0  0  0
    2.2148   -0.0826   -1.3532 C   0  0  0  0  0  4           0  0  0
  1 14  2  0     0  0
  2 15  2  0     0  0
  3 16  1  0     0  0
  4 17  1  0     0  0
  5  6  1  0     0  0
  5  7  1  0     0  0
  6  8  2  0     0  0
  6 10  1  0     0  0
  7  9  2  0     0  0
  7 19  1  0     0  0
  8  9  1  0     0  0
  8 11  1  0     0  0
  9 18  1  0     0  0
 10 12  2  0     0  0
 11 13  2  0     0  0
 12 13  1  0     0  0
 14 17  1  0     0  0
 14 18  1  0     0  0
 15 16  1  0     0  0
 15 20  1  0     0  0
 16 18  2  0     0  0
 17 20  2  0     0  0
 19 21  1  0     0  0
 19 22  1  0     0  0
 19 23  1  0     0  0
 21 22  1  0     0  0
M  END
> <standard_type>
pIC50

> <# Confs.>
12

> <canonical_smiles>
CC1(CC1)C2=C(C(C(C(O)=C3)=O)=C(O)C3=O)C4=C(N2)C=CC=C4

> <standard_relation>
=

> <predicted_activity_value>
5.424812155072339

> <actual_activity_value>
5.769551078621726

> <Compound>
26

> <publication_ID>
nan

> <standard_units>
nM

> hash
1789767038399511975

$$$$
26_
XXILIB    08252103423D 0   0.00000     0.00000

 23 26  0     1  0            999 V2000
   -0.5398   -2.3885   -2.5645 O   0  0  0  0  0  2           0  0  0
    0.2716    2.1260   -5.2574 O   0  0  0  0  0  2           0  0  0
   -0.4176    2.3801   -2.6119 O   0  0  0  0  0  2           0  0  0
    0.2820   -2.5728   -5.1791 O   0  0  0  0  0  2           0  0  0
   -0.7456    0.0000    1.1470 N   0  0  0  0  0  3           0  0  0
   -2.0850    0.0321    0.8442 C   0  0  0  0  0  4           0  0  0
    0.0000    0.0000    0.0000 C   0  0  0  0  0  4           0  0  0
   -2.1949    0.0394   -0.5495 C   0  0  0  0  0  4           0  0  0
   -0.8600    0.0113   -1.0827 C   0  0  0  0  0  4           0  0  0
   -3.1948    0.0517    1.6978 C   0  0  0  0  0  4           0  0  0
   -3.4935    0.0549   -1.1085 C   0  0  0  0  0  4           0  0  0
   -4.4634    0.0748    1.1152 C   0  0  0  0  0  4           0  0  0
   -4.6130    0.0751   -0.2679 C   0  0  0  0  0  4           0  0  0
   -0.3213   -1.3285   -3.1464 C   0  0  0  0  0  4           0  0  0
    0.1049    1.0940   -4.6148 C   0  0  0  0  0  4           0  0  0
   -0.2871    1.1263   -3.1834 C   0  0  0  0  0  4           0  0  0
    0.1021   -1.3487   -4.5673 C   0  0  0  0  0  4           0  0  0
   -0.4849    0.0023   -2.4677 C   0  0  0  0  0  4           0  0  0
    1.5636   -0.0000   -0.0000 C   0  0  2  0  0  4           0  0  0
    0.2975   -0.2196   -5.2467 C   0  0  0  0  0  4           0  0  0
    2.2611    0.6721   -1.1642 C   0  0  0  0  0  4           0  0  0
    2.2529   -0.8236   -1.0679 C   0  0  0  0  0  4           0  0  0
    2.2148    0.0826    1.3532 C   0  0  0  0  0  4           0  0  0
  1 14  2  0     0  0
  2 15  2  0     0  0
  3 16  1  0     0  0
  4 17  1  0     0  0
  5  6  1  0     0  0
  5  7  1  0     0  0
  6  8  2  0     0  0
  6 10  1  0     0  0
  7  9  2  0     0  0
  7 19  1  0     0  0
  8  9  1  0     0  0
  8 11  1  0     0  0
  9 18  1  0     0  0
 10 12  2  0     0  0
 11 13  2  0     0  0
 12 13  1  0     0  0
 14 17  1  0     0  0
 14 18  1  0     0  0
 15 16  1  0     0  0
 15 20  1  0     0  0
 16 18  2  0     0  0
 17 20  2  0     0  0
 19 21  1  0     0  0
 19 22  1  0     0  0
 19 23  1  0     0  0
 21 22  1  0     0  0
M  END
> <standard_type>
pIC50

> <# Confs.>
12

> <canonical_smiles>
CC1(CC1)C2=C(C(C(C(O)=C3)=O)=C(O)C3=O)C4=C(N2)C=CC=C4

> <standard_relation>
=

> <predicted_activity_value>
5.424812155072339

> <actual_activity_value>
5.769551078621726

> <Compound>
26

> <publication_ID>
nan

> <standard_units>
nM

> hash
1789767038399511975

$$$$
26_
XXILIB    08252103423D 0   0.00000     0.00000

 23 26  0     1  0            999 V2000
   -0.3807    2.3919   -2.5525 O   0  0  0  0  0  2           0  0  0
    0.2631   -2.1576   -5.2318 O   0  0  0  0  0  2           0  0  0
   -0.4780   -2.3774   -2.5972 O   0  0  0  0  0  2           0  0  0
    0.2300    2.5417   -5.2265 O   0  0  0  0  0  2           0  0  0
   -0.7456    0.0000    1.1470 N   0  0  0  0  0  3           0  0  0
   -2.0850    0.0321    0.8442 C   0  0  0  0  0  4           0  0  0
    0.0000    0.0000    0.0000 C   0  0  0  0  0  4           0  0  0
   -2.1949    0.0394   -0.5495 C   0  0  0  0  0  4           0  0  0
   -0.8600    0.0113   -1.0827 C   0  0  0  0  0  4           0  0  0
   -3.1948    0.0517    1.6978 C   0  0  0  0  0  4           0  0  0
   -3.4935    0.0549   -1.1085 C   0  0  0  0  0  4           0  0  0
   -4.4634    0.0748    1.1152 C   0  0  0  0  0  4           0  0  0
   -4.6130    0.0751   -0.2679 C   0  0  0  0  0  4           0  0  0
   -0.2791    1.3241   -3.1522 C   0  0  0  0  0  4           0  0  0
    0.0861   -1.1174   -4.6055 C   0  0  0  0  0  4           0  0  0
   -0.2980   -1.1310   -3.1716 C   0  0  0  0  0  4           0  0  0
    0.0725    1.3257   -4.5927 C   0  0  0  0  0  4           0  0  0
   -0.4849    0.0023   -2.4677 C   0  0  0  0  0  4           0  0  0
    1.5636   -0.0000   -0.0000 C   0  0  2  0  0  4           0  0  0
    0.2430    0.1878   -5.2641 C   0  0  0  0  0  4           0  0  0
    2.2611    0.6721   -1.1642 C   0  0  0  0  0  4           0  0  0
    2.2529   -0.8236   -1.0679 C   0  0  0  0  0  4           0  0  0
    2.2148    0.0826    1.3532 C   0  0  0  0  0  4           0  0  0
  1 14  2  0     0  0
  2 15  2  0     0  0
  3 16  1  0     0  0
  4 17  1  0     0  0
  5  6  1  0     0  0
  5  7  1  0     0  0
  6  8  2  0     0  0
  6 10  1  0     0  0
  7  9  2  0     0  0
  7 19  1  0     0  0
  8  9  1  0     0  0
  8 11  1  0     0  0
  9 18  1  0     0  0
 10 12  2  0     0  0
 11 13  2  0     0  0
 12 13  1  0     0  0
 14 17  1  0     0  0
 14 18  1  0     0  0
 15 16  1  0     0  0
 15 20  1  0     0  0
 16 18  2  0     0  0
 17 20  2  0     0  0
 19 21  1  0     0  0
 19 22  1  0     0  0
 19 23  1  0     0  0
 21 22  1  0     0  0
M  END
> <standard_type>
pIC50

> <# Confs.>
12

> <canonical_smiles>
CC1(CC1)C2=C(C(C(C(O)=C3)=O)=C(O)C3=O)C4=C(N2)C=CC=C4

> <standard_relation>
=

> <predicted_activity_value>
5.424812155072339

> <actual_activity_value>
5.769551078621726

> <Compound>
26

> <publication_ID>
nan

> <standard_units>
nM

> hash
1789767038399511975

$$$$
25_
XXILIB    08252103423D 0   0.00000     0.00000

 36 38  0     1  0            999 V2000
  -15.0028   -1.2617    7.8737 F   0  0  0  0  0  1           0  0  0
  -10.3901   -0.0565    8.5852 O   0  0  0  0  0  2           0  0  0
  -10.0032   -0.0204    3.9002 O   0  0  0  0  0  2           0  0  0
   -6.9384   -0.0000    3.1127 O   0  0  0  0  0  2           0  0  0
   -7.3651   -0.0289    7.5724 N   0  0  0  0  0  3           0  0  0
   -6.4030   -0.0124    6.6185 N   0  0  0  0  0  3           0  0  0
  -10.6496   -0.0445    6.2064 N   0  0  2  0  0  3           0  0  0
  -14.2548   -0.6666    6.9341 C   0  0  0  0  0  4           0  0  0
   -8.6005   -0.0355    7.0393 C   0  0  0  0  0  4           0  0  0
   -7.0792   -0.0127    5.4470 C   0  0  0  0  0  4           0  0  0
  -12.0659   -0.0508    6.0887 C   0  0  0  0  0  4           0  0  0
   -8.4590   -0.0251    5.6867 C   0  0  0  0  0  4           0  0  0
  -12.8661   -0.6630    7.0662 C   0  0  0  0  0  4           0  0  0
  -14.8764   -0.0683    5.8453 C   0  0  0  0  0  4           0  0  0
  -12.7005    0.5535    4.9890 C   0  0  0  0  0  4           0  0  0
  -14.0947    0.5435    4.8704 C   0  0  0  0  0  4           0  0  0
   -9.9662   -0.0480    7.4408 C   0  0  0  0  0  4           0  0  0
   -9.7710   -0.0299    5.0979 C   0  0  0  0  0  4           0  0  0
   -6.3442   -0.0000    4.1907 C   0  0  0  0  0  4           0  0  0
   -4.8306    0.0000    4.2191 C   0  0  0  0  0  4           0  0  0
   -4.2380   -0.0000    2.8129 C   0  0  0  0  0  4           0  0  0
   -2.7117    0.0000    2.8129 C   0  0  0  0  0  4           0  0  0
   -2.1190   -0.0000    1.4064 C   0  0  0  0  0  4           0  0  0
   -0.5927    0.0000    1.4064 C   0  0  0  0  0  4           0  0  0
    0.0000   -0.0000    0.0000 C   0  0  0  0  0  4           0  0  0
    1.5260    0.0000    0.0000 C   0  0  0  0  0  4           0  0  0
    2.1188    0.0000   -1.4064 C   0  0  0  0  0  4           0  0  0
    3.6450    0.0000   -1.4064 C   0  0  0  0  0  4           0  0  0
    4.2378    0.0000   -2.8129 C   0  0  0  0  0  4           0  0  0
    5.7640    0.0000   -2.8129 C   0  0  0  0  0  4           0  0  0
    6.3567    0.0000   -4.2193 C   0  0  0  0  0  4           0  0  0
    7.8830    0.0000   -4.2193 C   0  0  0  0  0  4           0  0  0
    8.4757    0.0000   -5.6258 C   0  0  0  0  0  4           0  0  0
   10.0019    0.0000   -5.6258 C   0  0  0  0  0  4           0  0  0
   10.5947    0.0000   -7.0322 C   0  0  0  0  0  4           0  0  0
   12.1162    0.0000   -7.0310 C   0  0  0  0  0  4           0  0  0
  1  8  1  0     0  0
  2 17  2  0     0  0
  3 18  2  0     0  0
  4 19  2  0     0  0
  5  6  1  0     0  0
  5  9  1  0     0  0
  6 10  2  0     0  0
  7 11  1  0     0  0
  7 17  1  0     0  0
  7 18  1  0     0  0
  8 13  1  0     0  0
  8 14  2  0     0  0
  9 12  2  0     0  0
  9 17  1  0     0  0
 10 12  1  0     0  0
 10 19  1  0     0  0
 11 13  2  0     0  0
 11 15  1  0     0  0
 12 18  1  0     0  0
 14 16  1  0     0  0
 15 16  2  0     0  0
 19 20  1  0     0  0
 20 21  1  0     0  0
 21 22  1  0     0  0
 22 23  1  0     0  0
 23 24  1  0     0  0
 24 25  1  0     0  0
 25 26  1  0     0  0
 26 27  1  0     0  0
 27 28  1  0     0  0
 28 29  1  0     0  0
 29 30  1  0     0  0
 30 31  1  0     0  0
 31 32  1  0     0  0
 32 33  1  0     0  0
 33 34  1  0     0  0
 34 35  1  0     0  0
 35 36  1  0     0  0
M  END
> <standard_type>
pIC50

> <# Confs.>
25

> <canonical_smiles>
O=C1C2=C(C(C(CCCCCCCCCCCCCCCCC)=O)=NN2)C(N1C3=CC(F)=CC=C3)=O

> <standard_relation>
=

> <predicted_activity_value>
5.440093374963888

> <actual_activity_value>
5.8326826652518236

> <Compound>
25

> <publication_ID>
nan

> <standard_units>
nM

> hash
4545269703029799314

$$$$
25_
XXILIB    08252103423D 0   0.00000     0.00000

 36 38  0     1  0            999 V2000
  -15.0155    1.0887    7.8997 F   0  0  0  0  0  1           0  0  0
  -10.3901   -0.0565    8.5852 O   0  0  0  0  0  2           0  0  0
  -10.0032   -0.0204    3.9002 O   0  0  0  0  0  2           0  0  0
   -6.9384   -0.0000    3.1127 O   0  0  0  0  0  2           0  0  0
   -7.3651   -0.0289    7.5724 N   0  0  0  0  0  3           0  0  0
   -6.4030   -0.0124    6.6185 N   0  0  0  0  0  3           0  0  0
  -10.6496   -0.0445    6.2064 N   0  0  2  0  0  3           0  0  0
  -14.2612    0.5232    6.9469 C   0  0  0  0  0  4           0  0  0
   -8.6005   -0.0355    7.0393 C   0  0  0  0  0  4           0  0  0
   -7.0792   -0.0127    5.4470 C   0  0  0  0  0  4           0  0  0
  -12.0659   -0.0508    6.0887 C   0  0  0  0  0  4           0  0  0
   -8.4590   -0.0251    5.6867 C   0  0  0  0  0  4           0  0  0
  -12.8720    0.5425    7.0729 C   0  0  0  0  0  4           0  0  0
  -14.8771   -0.0743    5.8545 C   0  0  0  0  0  4           0  0  0
  -12.6948   -0.6538    4.9850 C   0  0  0  0  0  4           0  0  0
  -14.0894   -0.6643    4.8710 C   0  0  0  0  0  4           0  0  0
   -9.9662   -0.0480    7.4408 C   0  0  0  0  0  4           0  0  0
   -9.7710   -0.0299    5.0979 C   0  0  0  0  0  4           0  0  0
   -6.3442   -0.0000    4.1907 C   0  0  0  0  0  4           0  0  0
   -4.8306    0.0000    4.2191 C   0  0  0  0  0  4           0  0  0
   -4.2380   -0.0000    2.8129 C   0  0  0  0  0  4           0  0  0
   -2.7117    0.0000    2.8129 C   0  0  0  0  0  4           0  0  0
   -2.1190   -0.0000    1.4064 C   0  0  0  0  0  4           0  0  0
   -0.5927    0.0000    1.4064 C   0  0  0  0  0  4           0  0  0
    0.0000   -0.0000    0.0000 C   0  0  0  0  0  4           0  0  0
    1.5260    0.0000    0.0000 C   0  0  0  0  0  4           0  0  0
    2.1188    0.0000   -1.4064 C   0  0  0  0  0  4           0  0  0
    3.6450    0.0000   -1.4064 C   0  0  0  0  0  4           0  0  0
    4.2378    0.0000   -2.8129 C   0  0  0  0  0  4           0  0  0
    5.7640    0.0000   -2.8129 C   0  0  0  0  0  4           0  0  0
    6.3567    0.0000   -4.2193 C   0  0  0  0  0  4           0  0  0
    7.8830    0.0000   -4.2193 C   0  0  0  0  0  4           0  0  0
    8.4757    0.0000   -5.6258 C   0  0  0  0  0  4           0  0  0
   10.0019    0.0000   -5.6258 C   0  0  0  0  0  4           0  0  0
   10.5947    0.0000   -7.0322 C   0  0  0  0  0  4           0  0  0
   12.1162    0.0000   -7.0310 C   0  0  0  0  0  4           0  0  0
  1  8  1  0     0  0
  2 17  2  0     0  0
  3 18  2  0     0  0
  4 19  2  0     0  0
  5  6  1  0     0  0
  5  9  1  0     0  0
  6 10  2  0     0  0
  7 11  1  0     0  0
  7 17  1  0     0  0
  7 18  1  0     0  0
  8 13  1  0     0  0
  8 14  2  0     0  0
  9 12  2  0     0  0
  9 17  1  0     0  0
 10 12  1  0     0  0
 10 19  1  0     0  0
 11 13  2  0     0  0
 11 15  1  0     0  0
 12 18  1  0     0  0
 14 16  1  0     0  0
 15 16  2  0     0  0
 19 20  1  0     0  0
 20 21  1  0     0  0
 21 22  1  0     0  0
 22 23  1  0     0  0
 23 24  1  0     0  0
 24 25  1  0     0  0
 25 26  1  0     0  0
 26 27  1  0     0  0
 27 28  1  0     0  0
 28 29  1  0     0  0
 29 30  1  0     0  0
 30 31  1  0     0  0
 31 32  1  0     0  0
 32 33  1  0     0  0
 33 34  1  0     0  0
 34 35  1  0     0  0
 35 36  1  0     0  0
M  END
> <standard_type>
pIC50

> <# Confs.>
25

> <canonical_smiles>
O=C1C2=C(C(C(CCCCCCCCCCCCCCCCC)=O)=NN2)C(N1C3=CC(F)=CC=C3)=O

> <standard_relation>
=

> <predicted_activity_value>
5.440093374963888

> <actual_activity_value>
5.8326826652518236

> <Compound>
25

> <publication_ID>
nan

> <standard_units>
nM

> hash
4545269703029799314

$$$$
25_
XXILIB    08252103423D 0   0.00000     0.00000

 36 38  0     1  0            999 V2000
  -14.6785    1.1354    3.8425 F   0  0  0  0  0  1           0  0  0
  -10.3901   -0.0565    8.5852 O   0  0  0  0  0  2           0  0  0
  -10.0032   -0.0204    3.9002 O   0  0  0  0  0  2           0  0  0
   -6.9384   -0.0000    3.1127 O   0  0  0  0  0  2           0  0  0
   -7.3651   -0.0289    7.5724 N   0  0  0  0  0  3           0  0  0
   -6.4030   -0.0124    6.6185 N   0  0  0  0  0  3           0  0  0
  -10.6496   -0.0445    6.2064 N   0  0  2  0  0  3           0  0  0
  -14.0906    0.5462    4.8932 C   0  0  0  0  0  4           0  0  0
   -8.6005   -0.0355    7.0393 C   0  0  0  0  0  4           0  0  0
   -7.0792   -0.0127    5.4470 C   0  0  0  0  0  4           0  0  0
  -12.0659   -0.0508    6.0887 C   0  0  0  0  0  4           0  0  0
   -8.4590   -0.0251    5.6867 C   0  0  0  0  0  4           0  0  0
  -12.6991    0.5550    4.9920 C   0  0  0  0  0  4           0  0  0
  -14.8781   -0.0583    5.8649 C   0  0  0  0  0  4           0  0  0
  -12.8680   -0.6615    7.0690 C   0  0  0  0  0  4           0  0  0
  -14.2626   -0.6639    6.9559 C   0  0  0  0  0  4           0  0  0
   -9.9662   -0.0480    7.4408 C   0  0  0  0  0  4           0  0  0
   -9.7710   -0.0299    5.0979 C   0  0  0  0  0  4           0  0  0
   -6.3442   -0.0000    4.1907 C   0  0  0  0  0  4           0  0  0
   -4.8306    0.0000    4.2191 C   0  0  0  0  0  4           0  0  0
   -4.2380   -0.0000    2.8129 C   0  0  0  0  0  4           0  0  0
   -2.7117    0.0000    2.8129 C   0  0  0  0  0  4           0  0  0
   -2.1190   -0.0000    1.4064 C   0  0  0  0  0  4           0  0  0
   -0.5927    0.0000    1.4064 C   0  0  0  0  0  4           0  0  0
    0.0000   -0.0000    0.0000 C   0  0  0  0  0  4           0  0  0
    1.5260    0.0000    0.0000 C   0  0  0  0  0  4           0  0  0
    2.1188    0.0000   -1.4064 C   0  0  0  0  0  4           0  0  0
    3.6450    0.0000   -1.4064 C   0  0  0  0  0  4           0  0  0
    4.2378    0.0000   -2.8129 C   0  0  0  0  0  4           0  0  0
    5.7640    0.0000   -2.8129 C   0  0  0  0  0  4           0  0  0
    6.3567    0.0000   -4.2193 C   0  0  0  0  0  4           0  0  0
    7.8830    0.0000   -4.2193 C   0  0  0  0  0  4           0  0  0
    8.4757    0.0000   -5.6258 C   0  0  0  0  0  4           0  0  0
   10.0019    0.0000   -5.6258 C   0  0  0  0  0  4           0  0  0
   10.5947    0.0000   -7.0322 C   0  0  0  0  0  4           0  0  0
   12.1162    0.0000   -7.0310 C   0  0  0  0  0  4           0  0  0
  1  8  1  0     0  0
  2 17  2  0     0  0
  3 18  2  0     0  0
  4 19  2  0     0  0
  5  6  1  0     0  0
  5  9  1  0     0  0
  6 10  2  0     0  0
  7 11  1  0     0  0
  7 17  1  0     0  0
  7 18  1  0     0  0
  8 13  1  0     0  0
  8 14  2  0     0  0
  9 12  2  0     0  0
  9 17  1  0     0  0
 10 12  1  0     0  0
 10 19  1  0     0  0
 11 13  2  0     0  0
 11 15  1  0     0  0
 12 18  1  0     0  0
 14 16  1  0     0  0
 15 16  2  0     0  0
 19 20  1  0     0  0
 20 21  1  0     0  0
 21 22  1  0     0  0
 22 23  1  0     0  0
 23 24  1  0     0  0
 24 25  1  0     0  0
 25 26  1  0     0  0
 26 27  1  0     0  0
 27 28  1  0     0  0
 28 29  1  0     0  0
 29 30  1  0     0  0
 30 31  1  0     0  0
 31 32  1  0     0  0
 32 33  1  0     0  0
 33 34  1  0     0  0
 34 35  1  0     0  0
 35 36  1  0     0  0
M  END
> <standard_type>
pIC50

> <# Confs.>
25

> <canonical_smiles>
O=C1C2=C(C(C(CCCCCCCCCCCCCCCCC)=O)=NN2)C(N1C3=CC(F)=CC=C3)=O

> <standard_relation>
=

> <predicted_activity_value>
5.440093374963888

> <actual_activity_value>
5.8326826652518236

> <Compound>
25

> <publication_ID>
nan

> <standard_units>
nM

> hash
4545269703029799314

$$$$
25_
XXILIB    08252103423D 0   0.00000     0.00000

 36 38  0     1  0            999 V2000
  -14.9068   -3.8452    2.7676 F   0  0  0  0  0  1           0  0  0
  -10.3050   -4.4699    4.0597 O   0  0  0  0  0  2           0  0  0
  -10.0069    0.2216    4.1014 O   0  0  0  0  0  2           0  0  0
   -6.9585    1.0666    4.1791 O   0  0  0  0  0  2           0  0  0
   -7.3006   -3.4003    4.1438 N   0  0  0  0  0  3           0  0  0
   -6.3570   -2.4285    4.1780 N   0  0  0  0  0  3           0  0  0
  -10.6094   -2.0963    4.0659 N   0  0  2  0  0  3           0  0  0
  -14.1879   -2.8917    3.3764 C   0  0  0  0  0  4           0  0  0
   -8.5455   -2.8906    4.1137 C   0  0  0  0  0  4           0  0  0
   -7.0551   -1.2699    4.1646 C   0  0  0  0  0  4           0  0  0
  -12.0272   -2.0053    4.0329 C   0  0  0  0  0  4           0  0  0
   -8.4296   -1.5356    4.1263 C   0  0  0  0  0  4           0  0  0
  -12.7972   -2.9977    3.4062 C   0  0  0  0  0  4           0  0  0
  -14.8410   -1.8148    3.9625 C   0  0  0  0  0  4           0  0  0
  -12.6937   -0.9178    4.6248 C   0  0  0  0  0  4           0  0  0
  -14.0894   -0.8254    4.5886 C   0  0  0  0  0  4           0  0  0
   -9.9029   -3.3177    4.0757 C   0  0  0  0  0  4           0  0  0
   -9.7521   -0.9715    4.0967 C   0  0  0  0  0  4           0  0  0
   -6.3442   -0.0000    4.1907 C   0  0  0  0  0  4           0  0  0
   -4.8306    0.0000    4.2191 C   0  0  0  0  0  4           0  0  0
   -4.2380   -0.0000    2.8129 C   0  0  0  0  0  4           0  0  0
   -2.7117    0.0000    2.8129 C   0  0  0  0  0  4           0  0  0
   -2.1190   -0.0000    1.4064 C   0  0  0  0  0  4           0  0  0
   -0.5927    0.0000    1.4064 C   0  0  0  0  0  4           0  0  0
    0.0000   -0.0000    0.0000 C   0  0  0  0  0  4           0  0  0
    1.5260    0.0000    0.0000 C   0  0  0  0  0  4           0  0  0
    2.1188    0.0000   -1.4064 C   0  0  0  0  0  4           0  0  0
    3.6450    0.0000   -1.4064 C   0  0  0  0  0  4           0  0  0
    4.2378    0.0000   -2.8129 C   0  0  0  0  0  4           0  0  0
    5.7640    0.0000   -2.8129 C   0  0  0  0  0  4           0  0  0
    6.3567    0.0000   -4.2193 C   0  0  0  0  0  4           0  0  0
    7.8830    0.0000   -4.2193 C   0  0  0  0  0  4           0  0  0
    8.4757    0.0000   -5.6258 C   0  0  0  0  0  4           0  0  0
   10.0019    0.0000   -5.6258 C   0  0  0  0  0  4           0  0  0
   10.5947    0.0000   -7.0322 C   0  0  0  0  0  4           0  0  0
   12.1162    0.0000   -7.0310 C   0  0  0  0  0  4           0  0  0
  1  8  1  0     0  0
  2 17  2  0     0  0
  3 18  2  0     0  0
  4 19  2  0     0  0
  5  6  1  0     0  0
  5  9  1  0     0  0
  6 10  2  0     0  0
  7 11  1  0     0  0
  7 17  1  0     0  0
  7 18  1  0     0  0
  8 13  1  0     0  0
  8 14  2  0     0  0
  9 12  2  0     0  0
  9 17  1  0     0  0
 10 12  1  0     0  0
 10 19  1  0     0  0
 11 13  2  0     0  0
 11 15  1  0     0  0
 12 18  1  0     0  0
 14 16  1  0     0  0
 15 16  2  0     0  0
 19 20  1  0     0  0
 20 21  1  0     0  0
 21 22  1  0     0  0
 22 23  1  0     0  0
 23 24  1  0     0  0
 24 25  1  0     0  0
 25 26  1  0     0  0
 26 27  1  0     0  0
 27 28  1  0     0  0
 28 29  1  0     0  0
 29 30  1  0     0  0
 30 31  1  0     0  0
 31 32  1  0     0  0
 32 33  1  0     0  0
 33 34  1  0     0  0
 34 35  1  0     0  0
 35 36  1  0     0  0
M  END
> <standard_type>
pIC50

> <# Confs.>
25

> <canonical_smiles>
O=C1C2=C(C(C(CCCCCCCCCCCCCCCCC)=O)=NN2)C(N1C3=CC(F)=CC=C3)=O

> <standard_relation>
=

> <predicted_activity_value>
5.440093374963888

> <actual_activity_value>
5.8326826652518236

> <Compound>
25

> <publication_ID>
nan

> <standard_units>
nM

> hash
4545269703029799314

$$$$
25_
XXILIB    08252103423D 0   0.00000     0.00000

 36 38  0     1  0            999 V2000
  -14.9542    3.8452    5.2906 F   0  0  0  0  0  1           0  0  0
  -10.3071    4.4699    4.1726 O   0  0  0  0  0  2           0  0  0
  -10.0077   -0.2216    4.1421 O   0  0  0  0  0  2           0  0  0
   -6.9585   -1.0666    4.1791 O   0  0  0  0  0  2           0  0  0
   -7.3017    3.4003    4.2016 N   0  0  0  0  0  3           0  0  0
   -6.3575    2.4285    4.2028 N   0  0  0  0  0  3           0  0  0
  -10.6110    2.0963    4.1549 N   0  0  2  0  0  3           0  0  0
  -14.2130    2.8917    4.7093 C   0  0  0  0  0  4           0  0  0
   -8.5468    2.8906    4.1848 C   0  0  0  0  0  4           0  0  0
   -7.0555    1.2699    4.1899 C   0  0  0  0  0  4           0  0  0
  -12.0291    2.0053    4.1345 C   0  0  0  0  0  4           0  0  0
   -8.4306    1.5356    4.1766 C   0  0  0  0  0  4           0  0  0
  -12.8222    2.9977    4.7319 C   0  0  0  0  0  4           0  0  0
  -14.8435    1.8148    4.0991 C   0  0  0  0  0  4           0  0  0
  -12.6729    0.9178    3.5180 C   0  0  0  0  0  4           0  0  0
  -14.0690    0.8254    3.5017 C   0  0  0  0  0  4           0  0  0
   -9.9047    3.3177    4.1717 C   0  0  0  0  0  4           0  0  0
   -9.7533    0.9715    4.1564 C   0  0  0  0  0  4           0  0  0
   -6.3442   -0.0000    4.1907 C   0  0  0  0  0  4           0  0  0
   -4.8306    0.0000    4.2191 C   0  0  0  0  0  4           0  0  0
   -4.2380   -0.0000    2.8129 C   0  0  0  0  0  4           0  0  0
   -2.7117    0.0000    2.8129 C   0  0  0  0  0  4           0  0  0
   -2.1190   -0.0000    1.4064 C   0  0  0  0  0  4           0  0  0
   -0.5927    0.0000    1.4064 C   0  0  0  0  0  4           0  0  0
    0.0000   -0.0000    0.0000 C   0  0  0  0  0  4           0  0  0
    1.5260    0.0000    0.0000 C   0  0  0  0  0  4           0  0  0
    2.1188    0.0000   -1.4064 C   0  0  0  0  0  4           0  0  0
    3.6450    0.0000   -1.4064 C   0  0  0  0  0  4           0  0  0
    4.2378    0.0000   -2.8129 C   0  0  0  0  0  4           0  0  0
    5.7640    0.0000   -2.8129 C   0  0  0  0  0  4           0  0  0
    6.3567    0.0000   -4.2193 C   0  0  0  0  0  4           0  0  0
    7.8830    0.0000   -4.2193 C   0  0  0  0  0  4           0  0  0
    8.4757    0.0000   -5.6258 C   0  0  0  0  0  4           0  0  0
   10.0019    0.0000   -5.6258 C   0  0  0  0  0  4           0  0  0
   10.5947    0.0000   -7.0322 C   0  0  0  0  0  4           0  0  0
   12.1162    0.0000   -7.0310 C   0  0  0  0  0  4           0  0  0
  1  8  1  0     0  0
  2 17  2  0     0  0
  3 18  2  0     0  0
  4 19  2  0     0  0
  5  6  1  0     0  0
  5  9  1  0     0  0
  6 10  2  0     0  0
  7 11  1  0     0  0
  7 17  1  0     0  0
  7 18  1  0     0  0
  8 13  1  0     0  0
  8 14  2  0     0  0
  9 12  2  0     0  0
  9 17  1  0     0  0
 10 12  1  0     0  0
 10 19  1  0     0  0
 11 13  2  0     0  0
 11 15  1  0     0  0
 12 18  1  0     0  0
 14 16  1  0     0  0
 15 16  2  0     0  0
 19 20  1  0     0  0
 20 21  1  0     0  0
 21 22  1  0     0  0
 22 23  1  0     0  0
 23 24  1  0     0  0
 24 25  1  0     0  0
 25 26  1  0     0  0
 26 27  1  0     0  0
 27 28  1  0     0  0
 28 29  1  0     0  0
 29 30  1  0     0  0
 30 31  1  0     0  0
 31 32  1  0     0  0
 32 33  1  0     0  0
 33 34  1  0     0  0
 34 35  1  0     0  0
 35 36  1  0     0  0
M  END
> <standard_type>
pIC50

> <# Confs.>
25

> <canonical_smiles>
O=C1C2=C(C(C(CCCCCCCCCCCCCCCCC)=O)=NN2)C(N1C3=CC(F)=CC=C3)=O

> <standard_relation>
=

> <predicted_activity_value>
5.440093374963888

> <actual_activity_value>
5.8326826652518236

> <Compound>
25

> <publication_ID>
nan

> <standard_units>
nM

> hash
4545269703029799314

$$$$
25_
XXILIB    08252103423D 0   0.00000     0.00000

 36 38  0     1  0            999 V2000
  -14.9631   -3.8715    5.1174 F   0  0  0  0  0  1           0  0  0
  -10.3050   -4.4699    4.0597 O   0  0  0  0  0  2           0  0  0
  -10.0069    0.2216    4.1014 O   0  0  0  0  0  2           0  0  0
   -6.9585    1.0666    4.1791 O   0  0  0  0  0  2           0  0  0
   -7.3006   -3.4003    4.1438 N   0  0  0  0  0  3           0  0  0
   -6.3570   -2.4285    4.1780 N   0  0  0  0  0  3           0  0  0
  -10.6094   -2.0963    4.0659 N   0  0  2  0  0  3           0  0  0
  -14.2164   -2.9047    4.5658 C   0  0  0  0  0  4           0  0  0
   -8.5455   -2.8906    4.1137 C   0  0  0  0  0  4           0  0  0
   -7.0551   -1.2699    4.1646 C   0  0  0  0  0  4           0  0  0
  -12.0272   -2.0053    4.0329 C   0  0  0  0  0  4           0  0  0
   -8.4296   -1.5356    4.1263 C   0  0  0  0  0  4           0  0  0
  -12.8257   -3.0046    4.6114 C   0  0  0  0  0  4           0  0  0
  -14.8414   -1.8240    3.9565 C   0  0  0  0  0  4           0  0  0
  -12.6653   -0.9137    3.4178 C   0  0  0  0  0  4           0  0  0
  -14.0613   -0.8259    3.3811 C   0  0  0  0  0  4           0  0  0
   -9.9029   -3.3177    4.0757 C   0  0  0  0  0  4           0  0  0
   -9.7521   -0.9715    4.0967 C   0  0  0  0  0  4           0  0  0
   -6.3442   -0.0000    4.1907 C   0  0  0  0  0  4           0  0  0
   -4.8306    0.0000    4.2191 C   0  0  0  0  0  4           0  0  0
   -4.2380   -0.0000    2.8129 C   0  0  0  0  0  4           0  0  0
   -2.7117    0.0000    2.8129 C   0  0  0  0  0  4           0  0  0
   -2.1190   -0.0000    1.4064 C   0  0  0  0  0  4           0  0  0
   -0.5927    0.0000    1.4064 C   0  0  0  0  0  4           0  0  0
    0.0000   -0.0000    0.0000 C   0  0  0  0  0  4           0  0  0
    1.5260    0.0000    0.0000 C   0  0  0  0  0  4           0  0  0
    2.1188    0.0000   -1.4064 C   0  0  0  0  0  4           0  0  0
    3.6450    0.0000   -1.4064 C   0  0  0  0  0  4           0  0  0
    4.2378    0.0000   -2.8129 C   0  0  0  0  0  4           0  0  0
    5.7640    0.0000   -2.8129 C   0  0  0  0  0  4           0  0  0
    6.3567    0.0000   -4.2193 C   0  0  0  0  0  4           0  0  0
    7.8830    0.0000   -4.2193 C   0  0  0  0  0  4           0  0  0
    8.4757    0.0000   -5.6258 C   0  0  0  0  0  4           0  0  0
   10.0019    0.0000   -5.6258 C   0  0  0  0  0  4           0  0  0
   10.5947    0.0000   -7.0322 C   0  0  0  0  0  4           0  0  0
   12.1162    0.0000   -7.0310 C   0  0  0  0  0  4           0  0  0
  1  8  1  0     0  0
  2 17  2  0     0  0
  3 18  2  0     0  0
  4 19  2  0     0  0
  5  6  1  0     0  0
  5  9  1  0     0  0
  6 10  2  0     0  0
  7 11  1  0     0  0
  7 17  1  0     0  0
  7 18  1  0     0  0
  8 13  1  0     0  0
  8 14  2  0     0  0
  9 12  2  0     0  0
  9 17  1  0     0  0
 10 12  1  0     0  0
 10 19  1  0     0  0
 11 13  2  0     0  0
 11 15  1  0     0  0
 12 18  1  0     0  0
 14 16  1  0     0  0
 15 16  2  0     0  0
 19 20  1  0     0  0
 20 21  1  0     0  0
 21 22  1  0     0  0
 22 23  1  0     0  0
 23 24  1  0     0  0
 24 25  1  0     0  0
 25 26  1  0     0  0
 26 27  1  0     0  0
 27 28  1  0     0  0
 28 29  1  0     0  0
 29 30  1  0     0  0
 30 31  1  0     0  0
 31 32  1  0     0  0
 32 33  1  0     0  0
 33 34  1  0     0  0
 34 35  1  0     0  0
 35 36  1  0     0  0
M  END
> <standard_type>
pIC50

> <# Confs.>
25

> <canonical_smiles>
O=C1C2=C(C(C(CCCCCCCCCCCCCCCCC)=O)=NN2)C(N1C3=CC(F)=CC=C3)=O

> <standard_relation>
=

> <predicted_activity_value>
5.440093374963888

> <actual_activity_value>
5.8326826652518236

> <Compound>
25

> <publication_ID>
nan

> <standard_units>
nM

> hash
4545269703029799314

$$$$
25_
XXILIB    08252103423D 0   0.00000     0.00000

 36 38  0     1  0            999 V2000
  -14.9222    3.8715    2.9404 F   0  0  0  0  0  1           0  0  0
  -10.3071    4.4699    4.1726 O   0  0  0  0  0  2           0  0  0
  -10.0077   -0.2216    4.1421 O   0  0  0  0  0  2           0  0  0
   -6.9585   -1.0666    4.1791 O   0  0  0  0  0  2           0  0  0
   -7.3017    3.4003    4.2016 N   0  0  0  0  0  3           0  0  0
   -6.3575    2.4285    4.2028 N   0  0  0  0  0  3           0  0  0
  -10.6110    2.0963    4.1549 N   0  0  2  0  0  3           0  0  0
  -14.1967    2.9047    3.5196 C   0  0  0  0  0  4           0  0  0
   -8.5468    2.8906    4.1848 C   0  0  0  0  0  4           0  0  0
   -7.0555    1.2699    4.1899 C   0  0  0  0  0  4           0  0  0
  -12.0291    2.0053    4.1345 C   0  0  0  0  0  4           0  0  0
   -8.4306    1.5356    4.1766 C   0  0  0  0  0  4           0  0  0
  -12.8053    3.0046    3.5265 C   0  0  0  0  0  4           0  0  0
  -14.8442    1.8240    4.1051 C   0  0  0  0  0  4           0  0  0
  -12.6899    0.9137    4.7252 C   0  0  0  0  0  4           0  0  0
  -14.0863    0.8259    4.7094 C   0  0  0  0  0  4           0  0  0
   -9.9047    3.3177    4.1717 C   0  0  0  0  0  4           0  0  0
   -9.7533    0.9715    4.1564 C   0  0  0  0  0  4           0  0  0
   -6.3442   -0.0000    4.1907 C   0  0  0  0  0  4           0  0  0
   -4.8306    0.0000    4.2191 C   0  0  0  0  0  4           0  0  0
   -4.2380   -0.0000    2.8129 C   0  0  0  0  0  4           0  0  0
   -2.7117    0.0000    2.8129 C   0  0  0  0  0  4           0  0  0
   -2.1190   -0.0000    1.4064 C   0  0  0  0  0  4           0  0  0
   -0.5927    0.0000    1.4064 C   0  0  0  0  0  4           0  0  0
    0.0000   -0.0000    0.0000 C   0  0  0  0  0  4           0  0  0
    1.5260    0.0000    0.0000 C   0  0  0  0  0  4           0  0  0
    2.1188    0.0000   -1.4064 C   0  0  0  0  0  4           0  0  0
    3.6450    0.0000   -1.4064 C   0  0  0  0  0  4           0  0  0
    4.2378    0.0000   -2.8129 C   0  0  0  0  0  4           0  0  0
    5.7640    0.0000   -2.8129 C   0  0  0  0  0  4           0  0  0
    6.3567    0.0000   -4.2193 C   0  0  0  0  0  4           0  0  0
    7.8830    0.0000   -4.2193 C   0  0  0  0  0  4           0  0  0
    8.4757    0.0000   -5.6258 C   0  0  0  0  0  4           0  0  0
   10.0019    0.0000   -5.6258 C   0  0  0  0  0  4           0  0  0
   10.5947    0.0000   -7.0322 C   0  0  0  0  0  4           0  0  0
   12.1162    0.0000   -7.0310 C   0  0  0  0  0  4           0  0  0
  1  8  1  0     0  0
  2 17  2  0     0  0
  3 18  2  0     0  0
  4 19  2  0     0  0
  5  6  1  0     0  0
  5  9  1  0     0  0
  6 10  2  0     0  0
  7 11  1  0     0  0
  7 17  1  0     0  0
  7 18  1  0     0  0
  8 13  1  0     0  0
  8 14  2  0     0  0
  9 12  2  0     0  0
  9 17  1  0     0  0
 10 12  1  0     0  0
 10 19  1  0     0  0
 11 13  2  0     0  0
 11 15  1  0     0  0
 12 18  1  0     0  0
 14 16  1  0     0  0
 15 16  2  0     0  0
 19 20  1  0     0  0
 20 21  1  0     0  0
 21 22  1  0     0  0
 22 23  1  0     0  0
 23 24  1  0     0  0
 24 25  1  0     0  0
 25 26  1  0     0  0
 26 27  1  0     0  0
 27 28  1  0     0  0
 28 29  1  0     0  0
 29 30  1  0     0  0
 30 31  1  0     0  0
 31 32  1  0     0  0
 32 33  1  0     0  0
 33 34  1  0     0  0
 34 35  1  0     0  0
 35 36  1  0     0  0
M  END
> <standard_type>
pIC50

> <# Confs.>
25

> <canonical_smiles>
O=C1C2=C(C(C(CCCCCCCCCCCCCCCCC)=O)=NN2)C(N1C3=CC(F)=CC=C3)=O

> <standard_relation>
=

> <predicted_activity_value>
5.440093374963888

> <actual_activity_value>
5.8326826652518236

> <Compound>
25

> <publication_ID>
nan

> <standard_units>
nM

> hash
4545269703029799314

$$$$
25_
XXILIB    08252103423D 0   0.00000     0.00000

 36 38  0     1  0            999 V2000
  -14.7035    0.1913    5.1690 F   0  0  0  0  0  1           0  0  0
  -10.3050   -4.4699    4.0597 O   0  0  0  0  0  2           0  0  0
  -10.0069    0.2216    4.1014 O   0  0  0  0  0  2           0  0  0
   -6.9585    1.0666    4.1791 O   0  0  0  0  0  2           0  0  0
   -7.3006   -3.4003    4.1438 N   0  0  0  0  0  3           0  0  0
   -6.3570   -2.4285    4.1780 N   0  0  0  0  0  3           0  0  0
  -10.6094   -2.0963    4.0659 N   0  0  2  0  0  3           0  0  0
  -14.0850   -0.8481    4.5914 C   0  0  0  0  0  4           0  0  0
   -8.5455   -2.8906    4.1137 C   0  0  0  0  0  4           0  0  0
   -7.0551   -1.2699    4.1646 C   0  0  0  0  0  4           0  0  0
  -12.0272   -2.0053    4.0329 C   0  0  0  0  0  4           0  0  0
   -8.4296   -1.5356    4.1263 C   0  0  0  0  0  4           0  0  0
  -12.6923   -0.9208    4.6263 C   0  0  0  0  0  4           0  0  0
  -14.8425   -1.8344    3.9724 C   0  0  0  0  0  4           0  0  0
  -12.7991   -3.0005    3.4076 C   0  0  0  0  0  4           0  0  0
  -14.1953   -2.9137    3.3789 C   0  0  0  0  0  4           0  0  0
   -9.9029   -3.3177    4.0757 C   0  0  0  0  0  4           0  0  0
   -9.7521   -0.9715    4.0967 C   0  0  0  0  0  4           0  0  0
   -6.3442   -0.0000    4.1907 C   0  0  0  0  0  4           0  0  0
   -4.8306    0.0000    4.2191 C   0  0  0  0  0  4           0  0  0
   -4.2380   -0.0000    2.8129 C   0  0  0  0  0  4           0  0  0
   -2.7117    0.0000    2.8129 C   0  0  0  0  0  4           0  0  0
   -2.1190   -0.0000    1.4064 C   0  0  0  0  0  4           0  0  0
   -0.5927    0.0000    1.4064 C   0  0  0  0  0  4           0  0  0
    0.0000   -0.0000    0.0000 C   0  0  0  0  0  4           0  0  0
    1.5260    0.0000    0.0000 C   0  0  0  0  0  4           0  0  0
    2.1188    0.0000   -1.4064 C   0  0  0  0  0  4           0  0  0
    3.6450    0.0000   -1.4064 C   0  0  0  0  0  4           0  0  0
    4.2378    0.0000   -2.8129 C   0  0  0  0  0  4           0  0  0
    5.7640    0.0000   -2.8129 C   0  0  0  0  0  4           0  0  0
    6.3567    0.0000   -4.2193 C   0  0  0  0  0  4           0  0  0
    7.8830    0.0000   -4.2193 C   0  0  0  0  0  4           0  0  0
    8.4757    0.0000   -5.6258 C   0  0  0  0  0  4           0  0  0
   10.0019    0.0000   -5.6258 C   0  0  0  0  0  4           0  0  0
   10.5947    0.0000   -7.0322 C   0  0  0  0  0  4           0  0  0
   12.1162    0.0000   -7.0310 C   0  0  0  0  0  4           0  0  0
  1  8  1  0     0  0
  2 17  2  0     0  0
  3 18  2  0     0  0
  4 19  2  0     0  0
  5  6  1  0     0  0
  5  9  1  0     0  0
  6 10  2  0     0  0
  7 11  1  0     0  0
  7 17  1  0     0  0
  7 18  1  0     0  0
  8 13  1  0     0  0
  8 14  2  0     0  0
  9 12  2  0     0  0
  9 17  1  0     0  0
 10 12  1  0     0  0
 10 19  1  0     0  0
 11 13  2  0     0  0
 11 15  1  0     0  0
 12 18  1  0     0  0
 14 16  1  0     0  0
 15 16  2  0     0  0
 19 20  1  0     0  0
 20 21  1  0     0  0
 21 22  1  0     0  0
 22 23  1  0     0  0
 23 24  1  0     0  0
 24 25  1  0     0  0
 25 26  1  0     0  0
 26 27  1  0     0  0
 27 28  1  0     0  0
 28 29  1  0     0  0
 29 30  1  0     0  0
 30 31  1  0     0  0
 31 32  1  0     0  0
 32 33  1  0     0  0
 33 34  1  0     0  0
 34 35  1  0     0  0
 35 36  1  0     0  0
M  END
> <standard_type>
pIC50

> <# Confs.>
25

> <canonical_smiles>
O=C1C2=C(C(C(CCCCCCCCCCCCCCCCC)=O)=NN2)C(N1C3=CC(F)=CC=C3)=O

> <standard_relation>
=

> <predicted_activity_value>
5.440093374963888

> <actual_activity_value>
5.8326826652518236

> <Compound>
25

> <publication_ID>
nan

> <standard_units>
nM

> hash
4545269703029799314

$$$$
25_
XXILIB    08252103423D 0   0.00000     0.00000

 36 38  0     1  0            999 V2000
  -15.0050    0.8300    7.9894 F   0  0  0  0  0  1           0  0  0
  -10.3794    2.1860    8.0147 O   0  0  0  0  0  2           0  0  0
  -10.0039   -0.1284    3.9400 O   0  0  0  0  0  2           0  0  0
   -6.9411   -0.5333    3.2556 O   0  0  0  0  0  2           0  0  0
   -7.3568    1.6751    7.1313 N   0  0  0  0  0  3           0  0  0
   -6.3969    1.2035    6.2994 N   0  0  0  0  0  3           0  0  0
  -10.6448    1.0096    5.9478 N   0  0  2  0  0  3           0  0  0
  -14.2538    0.8686    6.8800 C   0  0  0  0  0  4           0  0  0
   -8.5935    1.4145    6.6699 C   0  0  0  0  0  4           0  0  0
   -7.0761    0.6240    5.2832 C   0  0  0  0  0  4           0  0  0
  -12.0613    0.9587    5.8455 C   0  0  0  0  0  4           0  0  0
   -8.4554    0.7460    5.4936 C   0  0  0  0  0  4           0  0  0
  -12.8648    0.9247    6.9961 C   0  0  0  0  0  4           0  0  0
  -14.8725    0.8483    5.6363 C   0  0  0  0  0  4           0  0  0
  -12.6930    0.9383    4.5893 C   0  0  0  0  0  4           0  0  0
  -14.0875    0.8834    4.4881 C   0  0  0  0  0  4           0  0  0
   -9.9583    1.6173    7.0204 C   0  0  0  0  0  4           0  0  0
   -9.7688    0.4599    4.9827 C   0  0  0  0  0  4           0  0  0
   -6.3442   -0.0000    4.1907 C   0  0  0  0  0  4           0  0  0
   -4.8306    0.0000    4.2191 C   0  0  0  0  0  4           0  0  0
   -4.2380   -0.0000    2.8129 C   0  0  0  0  0  4           0  0  0
   -2.7117    0.0000    2.8129 C   0  0  0  0  0  4           0  0  0
   -2.1190   -0.0000    1.4064 C   0  0  0  0  0  4           0  0  0
   -0.5927    0.0000    1.4064 C   0  0  0  0  0  4           0  0  0
    0.0000   -0.0000    0.0000 C   0  0  0  0  0  4           0  0  0
    1.5260    0.0000    0.0000 C   0  0  0  0  0  4           0  0  0
    2.1188    0.0000   -1.4064 C   0  0  0  0  0  4           0  0  0
    3.6450    0.0000   -1.4064 C   0  0  0  0  0  4           0  0  0
    4.2378    0.0000   -2.8129 C   0  0  0  0  0  4           0  0  0
    5.7640    0.0000   -2.8129 C   0  0  0  0  0  4           0  0  0
    6.3567    0.0000   -4.2193 C   0  0  0  0  0  4           0  0  0
    7.8830    0.0000   -4.2193 C   0  0  0  0  0  4           0  0  0
    8.4757    0.0000   -5.6258 C   0  0  0  0  0  4           0  0  0
   10.0019    0.0000   -5.6258 C   0  0  0  0  0  4           0  0  0
   10.5947    0.0000   -7.0322 C   0  0  0  0  0  4           0  0  0
   12.1162    0.0000   -7.0310 C   0  0  0  0  0  4           0  0  0
  1  8  1  0     0  0
  2 17  2  0     0  0
  3 18  2  0     0  0
  4 19  2  0     0  0
  5  6  1  0     0  0
  5  9  1  0     0  0
  6 10  2  0     0  0
  7 11  1  0     0  0
  7 17  1  0     0  0
  7 18  1  0     0  0
  8 13  1  0     0  0
  8 14  2  0     0  0
  9 12  2  0     0  0
  9 17  1  0     0  0
 10 12  1  0     0  0
 10 19  1  0     0  0
 11 13  2  0     0  0
 11 15  1  0     0  0
 12 18  1  0     0  0
 14 16  1  0     0  0
 15 16  2  0     0  0
 19 20  1  0     0  0
 20 21  1  0     0  0
 21 22  1  0     0  0
 22 23  1  0     0  0
 23 24  1  0     0  0
 24 25  1  0     0  0
 25 26  1  0     0  0
 26 27  1  0     0  0
 27 28  1  0     0  0
 28 29  1  0     0  0
 29 30  1  0     0  0
 30 31  1  0     0  0
 31 32  1  0     0  0
 32 33  1  0     0  0
 33 34  1  0     0  0
 34 35  1  0     0  0
 35 36  1  0     0  0
M  END
> <standard_type>
pIC50

> <# Confs.>
25

> <canonical_smiles>
O=C1C2=C(C(C(CCCCCCCCCCCCCCCCC)=O)=NN2)C(N1C3=CC(F)=CC=C3)=O

> <standard_relation>
=

> <predicted_activity_value>
5.440093374963888

> <actual_activity_value>
5.8326826652518236

> <Compound>
25

> <publication_ID>
nan

> <standard_units>
nM

> hash
4545269703029799314

$$$$
25_
XXILIB    08252103423D 0   0.00000     0.00000

 36 38  0     1  0            999 V2000
  -15.0160   -0.9929    7.9253 F   0  0  0  0  0  1           0  0  0
  -10.3783   -2.2838    7.9582 O   0  0  0  0  0  2           0  0  0
  -10.0035    0.0932    3.9197 O   0  0  0  0  0  2           0  0  0
   -6.9411    0.5333    3.2556 O   0  0  0  0  0  2           0  0  0
   -7.3563   -1.7252    7.1025 N   0  0  0  0  0  3           0  0  0
   -6.3967   -1.2250    6.2870 N   0  0  0  0  0  3           0  0  0
  -10.6439   -1.0867    5.9033 N   0  0  2  0  0  3           0  0  0
  -14.2588   -0.9992    6.8194 C   0  0  0  0  0  4           0  0  0
   -8.5929   -1.4761    6.6344 C   0  0  0  0  0  4           0  0  0
   -7.0759   -0.6459    5.2705 C   0  0  0  0  0  4           0  0  0
  -12.0604   -1.0467    5.7947 C   0  0  0  0  0  4           0  0  0
   -8.4549   -0.7896    5.4685 C   0  0  0  0  0  4           0  0  0
  -12.8695   -1.0324    6.9417 C   0  0  0  0  0  4           0  0  0
  -14.8718   -0.9764    5.5730 C   0  0  0  0  0  4           0  0  0
  -12.6864   -1.0230    4.5358 C   0  0  0  0  0  4           0  0  0
  -14.0811   -0.9883    4.4283 C   0  0  0  0  0  4           0  0  0
   -9.9574   -1.7004    6.9724 C   0  0  0  0  0  4           0  0  0
   -9.7683   -0.5117    4.9528 C   0  0  0  0  0  4           0  0  0
   -6.3442   -0.0000    4.1907 C   0  0  0  0  0  4           0  0  0
   -4.8306    0.0000    4.2191 C   0  0  0  0  0  4           0  0  0
   -4.2380   -0.0000    2.8129 C   0  0  0  0  0  4           0  0  0
   -2.7117    0.0000    2.8129 C   0  0  0  0  0  4           0  0  0
   -2.1190   -0.0000    1.4064 C   0  0  0  0  0  4           0  0  0
   -0.5927    0.0000    1.4064 C   0  0  0  0  0  4           0  0  0
    0.0000   -0.0000    0.0000 C   0  0  0  0  0  4           0  0  0
    1.5260    0.0000    0.0000 C   0  0  0  0  0  4           0  0  0
    2.1188    0.0000   -1.4064 C   0  0  0  0  0  4           0  0  0
    3.6450    0.0000   -1.4064 C   0  0  0  0  0  4           0  0  0
    4.2378    0.0000   -2.8129 C   0  0  0  0  0  4           0  0  0
    5.7640    0.0000   -2.8129 C   0  0  0  0  0  4           0  0  0
    6.3567    0.0000   -4.2193 C   0  0  0  0  0  4           0  0  0
    7.8830    0.0000   -4.2193 C   0  0  0  0  0  4           0  0  0
    8.4757    0.0000   -5.6258 C   0  0  0  0  0  4           0  0  0
   10.0019    0.0000   -5.6258 C   0  0  0  0  0  4           0  0  0
   10.5947    0.0000   -7.0322 C   0  0  0  0  0  4           0  0  0
   12.1162    0.0000   -7.0310 C   0  0  0  0  0  4           0  0  0
  1  8  1  0     0  0
  2 17  2  0     0  0
  3 18  2  0     0  0
  4 19  2  0     0  0
  5  6  1  0     0  0
  5  9  1  0     0  0
  6 10  2  0     0  0
  7 11  1  0     0  0
  7 17  1  0     0  0
  7 18  1  0     0  0
  8 13  1  0     0  0
  8 14  2  0     0  0
  9 12  2  0     0  0
  9 17  1  0     0  0
 10 12  1  0     0  0
 10 19  1  0     0  0
 11 13  2  0     0  0
 11 15  1  0     0  0
 12 18  1  0     0  0
 14 16  1  0     0  0
 15 16  2  0     0  0
 19 20  1  0     0  0
 20 21  1  0     0  0
 21 22  1  0     0  0
 22 23  1  0     0  0
 23 24  1  0     0  0
 24 25  1  0     0  0
 25 26  1  0     0  0
 26 27  1  0     0  0
 27 28  1  0     0  0
 28 29  1  0     0  0
 29 30  1  0     0  0
 30 31  1  0     0  0
 31 32  1  0     0  0
 32 33  1  0     0  0
 33 34  1  0     0  0
 34 35  1  0     0  0
 35 36  1  0     0  0
M  END
> <standard_type>
pIC50

> <# Confs.>
25

> <canonical_smiles>
O=C1C2=C(C(C(CCCCCCCCCCCCCCCCC)=O)=NN2)C(N1C3=CC(F)=CC=C3)=O

> <standard_relation>
=

> <predicted_activity_value>
5.440093374963888

> <actual_activity_value>
5.8326826652518236

> <Compound>
25

> <publication_ID>
nan

> <standard_units>
nM

> hash
4545269703029799314

$$$$
25_
XXILIB    08252103423D 0   0.00000     0.00000

 36 38  0     1  0            999 V2000
  -14.6608   -0.1913    2.8986 F   0  0  0  0  0  1           0  0  0
  -10.3071    4.4699    4.1726 O   0  0  0  0  0  2           0  0  0
  -10.0077   -0.2216    4.1421 O   0  0  0  0  0  2           0  0  0
   -6.9585   -1.0666    4.1791 O   0  0  0  0  0  2           0  0  0
   -7.3017    3.4003    4.2016 N   0  0  0  0  0  3           0  0  0
   -6.3575    2.4285    4.2028 N   0  0  0  0  0  3           0  0  0
  -10.6110    2.0963    4.1549 N   0  0  2  0  0  3           0  0  0
  -14.0644    0.8481    3.4991 C   0  0  0  0  0  4           0  0  0
   -8.5468    2.8906    4.1848 C   0  0  0  0  0  4           0  0  0
   -7.0555    1.2699    4.1899 C   0  0  0  0  0  4           0  0  0
  -12.0291    2.0053    4.1345 C   0  0  0  0  0  4           0  0  0
   -8.4306    1.5356    4.1766 C   0  0  0  0  0  4           0  0  0
  -12.6714    0.9208    3.5165 C   0  0  0  0  0  4           0  0  0
  -14.8446    1.8344    4.0891 C   0  0  0  0  0  4           0  0  0
  -12.8240    3.0005    4.7304 C   0  0  0  0  0  4           0  0  0
  -14.2203    2.9137    4.7065 C   0  0  0  0  0  4           0  0  0
   -9.9047    3.3177    4.1717 C   0  0  0  0  0  4           0  0  0
   -9.7533    0.9715    4.1564 C   0  0  0  0  0  4           0  0  0
   -6.3442   -0.0000    4.1907 C   0  0  0  0  0  4           0  0  0
   -4.8306    0.0000    4.2191 C   0  0  0  0  0  4           0  0  0
   -4.2380   -0.0000    2.8129 C   0  0  0  0  0  4           0  0  0
   -2.7117    0.0000    2.8129 C   0  0  0  0  0  4           0  0  0
   -2.1190   -0.0000    1.4064 C   0  0  0  0  0  4           0  0  0
   -0.5927    0.0000    1.4064 C   0  0  0  0  0  4           0  0  0
    0.0000   -0.0000    0.0000 C   0  0  0  0  0  4           0  0  0
    1.5260    0.0000    0.0000 C   0  0  0  0  0  4           0  0  0
    2.1188    0.0000   -1.4064 C   0  0  0  0  0  4           0  0  0
    3.6450    0.0000   -1.4064 C   0  0  0  0  0  4           0  0  0
    4.2378    0.0000   -2.8129 C   0  0  0  0  0  4           0  0  0
    5.7640    0.0000   -2.8129 C   0  0  0  0  0  4           0  0  0
    6.3567    0.0000   -4.2193 C   0  0  0  0  0  4           0  0  0
    7.8830    0.0000   -4.2193 C   0  0  0  0  0  4           0  0  0
    8.4757    0.0000   -5.6258 C   0  0  0  0  0  4           0  0  0
   10.0019    0.0000   -5.6258 C   0  0  0  0  0  4           0  0  0
   10.5947    0.0000   -7.0322 C   0  0  0  0  0  4           0  0  0
   12.1162    0.0000   -7.0310 C   0  0  0  0  0  4           0  0  0
  1  8  1  0     0  0
  2 17  2  0     0  0
  3 18  2  0     0  0
  4 19  2  0     0  0
  5  6  1  0     0  0
  5  9  1  0     0  0
  6 10  2  0     0  0
  7 11  1  0     0  0
  7 17  1  0     0  0
  7 18  1  0     0  0
  8 13  1  0     0  0
  8 14  2  0     0  0
  9 12  2  0     0  0
  9 17  1  0     0  0
 10 12  1  0     0  0
 10 19  1  0     0  0
 11 13  2  0     0  0
 11 15  1  0     0  0
 12 18  1  0     0  0
 14 16  1  0     0  0
 15 16  2  0     0  0
 19 20  1  0     0  0
 20 21  1  0     0  0
 21 22  1  0     0  0
 22 23  1  0     0  0
 23 24  1  0     0  0
 24 25  1  0     0  0
 25 26  1  0     0  0
 26 27  1  0     0  0
 27 28  1  0     0  0
 28 29  1  0     0  0
 29 30  1  0     0  0
 30 31  1  0     0  0
 31 32  1  0     0  0
 32 33  1  0     0  0
 33 34  1  0     0  0
 34 35  1  0     0  0
 35 36  1  0     0  0
M  END
> <standard_type>
pIC50

> <# Confs.>
25

> <canonical_smiles>
O=C1C2=C(C(C(CCCCCCCCCCCCCCCCC)=O)=NN2)C(N1C3=CC(F)=CC=C3)=O

> <standard_relation>
=

> <predicted_activity_value>
5.440093374963888

> <actual_activity_value>
5.8326826652518236

> <Compound>
25

> <publication_ID>
nan

> <standard_units>
nM

> hash
4545269703029799314

$$$$
25_
XXILIB    08252103423D 0   0.00000     0.00000

 36 38  0     1  0            999 V2000
  -14.6471    0.2175    2.8192 F   0  0  0  0  0  1           0  0  0
  -10.3050   -4.4699    4.0597 O   0  0  0  0  0  2           0  0  0
  -10.0069    0.2216    4.1014 O   0  0  0  0  0  2           0  0  0
   -6.9585    1.0666    4.1791 O   0  0  0  0  0  2           0  0  0
   -7.3006   -3.4003    4.1438 N   0  0  0  0  0  3           0  0  0
   -6.3570   -2.4285    4.1780 N   0  0  0  0  0  3           0  0  0
  -10.6094   -2.0963    4.0659 N   0  0  2  0  0  3           0  0  0
  -14.0565   -0.8351    3.4019 C   0  0  0  0  0  4           0  0  0
   -8.5455   -2.8906    4.1137 C   0  0  0  0  0  4           0  0  0
   -7.0551   -1.2699    4.1646 C   0  0  0  0  0  4           0  0  0
  -12.0272   -2.0053    4.0329 C   0  0  0  0  0  4           0  0  0
   -8.4296   -1.5356    4.1263 C   0  0  0  0  0  4           0  0  0
  -12.6638   -0.9140    3.4211 C   0  0  0  0  0  4           0  0  0
  -14.8420   -1.8252    3.9784 C   0  0  0  0  0  4           0  0  0
  -12.8274   -3.0047    4.6146 C   0  0  0  0  0  4           0  0  0
  -14.2234   -2.9131    4.5864 C   0  0  0  0  0  4           0  0  0
   -9.9029   -3.3177    4.0757 C   0  0  0  0  0  4           0  0  0
   -9.7521   -0.9715    4.0967 C   0  0  0  0  0  4           0  0  0
   -6.3442   -0.0000    4.1907 C   0  0  0  0  0  4           0  0  0
   -4.8306    0.0000    4.2191 C   0  0  0  0  0  4           0  0  0
   -4.2380   -0.0000    2.8129 C   0  0  0  0  0  4           0  0  0
   -2.7117    0.0000    2.8129 C   0  0  0  0  0  4           0  0  0
   -2.1190   -0.0000    1.4064 C   0  0  0  0  0  4           0  0  0
   -0.5927    0.0000    1.4064 C   0  0  0  0  0  4           0  0  0
    0.0000   -0.0000    0.0000 C   0  0  0  0  0  4           0  0  0
    1.5260    0.0000    0.0000 C   0  0  0  0  0  4           0  0  0
    2.1188    0.0000   -1.4064 C   0  0  0  0  0  4           0  0  0
    3.6450    0.0000   -1.4064 C   0  0  0  0  0  4           0  0  0
    4.2378    0.0000   -2.8129 C   0  0  0  0  0  4           0  0  0
    5.7640    0.0000   -2.8129 C   0  0  0  0  0  4           0  0  0
    6.3567    0.0000   -4.2193 C   0  0  0  0  0  4           0  0  0
    7.8830    0.0000   -4.2193 C   0  0  0  0  0  4           0  0  0
    8.4757    0.0000   -5.6258 C   0  0  0  0  0  4           0  0  0
   10.0019    0.0000   -5.6258 C   0  0  0  0  0  4           0  0  0
   10.5947    0.0000   -7.0322 C   0  0  0  0  0  4           0  0  0
   12.1162    0.0000   -7.0310 C   0  0  0  0  0  4           0  0  0
  1  8  1  0     0  0
  2 17  2  0     0  0
  3 18  2  0     0  0
  4 19  2  0     0  0
  5  6  1  0     0  0
  5  9  1  0     0  0
  6 10  2  0     0  0
  7 11  1  0     0  0
  7 17  1  0     0  0
  7 18  1  0     0  0
  8 13  1  0     0  0
  8 14  2  0     0  0
  9 12  2  0     0  0
  9 17  1  0     0  0
 10 12  1  0     0  0
 10 19  1  0     0  0
 11 13  2  0     0  0
 11 15  1  0     0  0
 12 18  1  0     0  0
 14 16  1  0     0  0
 15 16  2  0     0  0
 19 20  1  0     0  0
 20 21  1  0     0  0
 21 22  1  0     0  0
 22 23  1  0     0  0
 23 24  1  0     0  0
 24 25  1  0     0  0
 25 26  1  0     0  0
 26 27  1  0     0  0
 27 28  1  0     0  0
 28 29  1  0     0  0
 29 30  1  0     0  0
 30 31  1  0     0  0
 31 32  1  0     0  0
 32 33  1  0     0  0
 33 34  1  0     0  0
 34 35  1  0     0  0
 35 36  1  0     0  0
M  END
> <standard_type>
pIC50

> <# Confs.>
25

> <canonical_smiles>
O=C1C2=C(C(C(CCCCCCCCCCCCCCCCC)=O)=NN2)C(N1C3=CC(F)=CC=C3)=O

> <standard_relation>
=

> <predicted_activity_value>
5.440093374963888

> <actual_activity_value>
5.8326826652518236

> <Compound>
25

> <publication_ID>
nan

> <standard_units>
nM

> hash
4545269703029799314

$$$$
25_
XXILIB    08252103423D 0   0.00000     0.00000

 36 38  0     1  0            999 V2000
   -4.3616   10.4521    7.2118 F   0  0  0  0  0  1           0  0  0
   -6.8135    6.6574    5.5311 O   0  0  0  0  0  2           0  0  0
   -3.1734    4.0598    6.9813 O   0  0  0  0  0  2           0  0  0
   -3.3754    1.1783    5.6892 O   0  0  0  0  0  2           0  0  0
   -6.8276    3.6967    4.3431 N   0  0  0  0  0  3           0  0  0
   -6.3287    2.4462    4.1900 N   0  0  0  0  0  3           0  0  0
   -4.8393    5.7114    6.4977 N   0  0  2  0  0  3           0  0  0
   -4.1242    9.1969    7.6176 C   0  0  0  0  0  4           0  0  0
   -6.0639    4.4454    5.1596 C   0  0  0  0  0  4           0  0  0
   -5.2058    2.4285    4.9440 C   0  0  0  0  0  4           0  0  0
   -4.3608    6.8085    7.2639 C   0  0  0  0  0  4           0  0  0
   -5.0209    3.6712    5.5628 C   0  0  0  0  0  4           0  0  0
   -4.6056    8.1300    6.8585 C   0  0  0  0  0  4           0  0  0
   -3.4007    8.9825    8.7839 C   0  0  0  0  0  4           0  0  0
   -3.6282    6.5976    8.4454 C   0  0  0  0  0  4           0  0  0
   -3.1529    7.6774    9.1977 C   0  0  0  0  0  4           0  0  0
   -6.0127    5.7551    5.7152 C   0  0  0  0  0  4           0  0  0
   -4.1929    4.4546    6.4396 C   0  0  0  0  0  4           0  0  0
   -4.4009    1.2175    5.0097 C   0  0  0  0  0  4           0  0  0
   -4.8306    0.0000    4.2191 C   0  0  0  0  0  4           0  0  0
   -4.2380    0.0000    2.8129 C   0  0  0  0  0  4           0  0  0
   -2.7117    0.0000    2.8129 C   0  0  0  0  0  4           0  0  0
   -2.1190    0.0000    1.4064 C   0  0  0  0  0  4           0  0  0
   -0.5927    0.0000    1.4064 C   0  0  0  0  0  4           0  0  0
    0.0000    0.0000    0.0000 C   0  0  0  0  0  4           0  0  0
    1.5260    0.0000    0.0000 C   0  0  0  0  0  4           0  0  0
    2.1188    0.0000   -1.4064 C   0  0  0  0  0  4           0  0  0
    3.6450    0.0000   -1.4064 C   0  0  0  0  0  4           0  0  0
    4.2378    0.0000   -2.8129 C   0  0  0  0  0  4           0  0  0
    5.7640    0.0000   -2.8129 C   0  0  0  0  0  4           0  0  0
    6.3567    0.0000   -4.2193 C   0  0  0  0  0  4           0  0  0
    7.8830    0.0000   -4.2193 C   0  0  0  0  0  4           0  0  0
    8.4757    0.0000   -5.6258 C   0  0  0  0  0  4           0  0  0
   10.0019    0.0000   -5.6258 C   0  0  0  0  0  4           0  0  0
   10.5947    0.0000   -7.0322 C   0  0  0  0  0  4           0  0  0
   12.1162    0.0000   -7.0310 C   0  0  0  0  0  4           0  0  0
  1  8  1  0     0  0
  2 17  2  0     0  0
  3 18  2  0     0  0
  4 19  2  0     0  0
  5  6  1  0     0  0
  5  9  1  0     0  0
  6 10  2  0     0  0
  7 11  1  0     0  0
  7 17  1  0     0  0
  7 18  1  0     0  0
  8 13  1  0     0  0
  8 14  2  0     0  0
  9 12  2  0     0  0
  9 17  1  0     0  0
 10 12  1  0     0  0
 10 19  1  0     0  0
 11 13  2  0     0  0
 11 15  1  0     0  0
 12 18  1  0     0  0
 14 16  1  0     0  0
 15 16  2  0     0  0
 19 20  1  0     0  0
 20 21  1  0     0  0
 21 22  1  0     0  0
 22 23  1  0     0  0
 23 24  1  0     0  0
 24 25  1  0     0  0
 25 26  1  0     0  0
 26 27  1  0     0  0
 27 28  1  0     0  0
 28 29  1  0     0  0
 29 30  1  0     0  0
 30 31  1  0     0  0
 31 32  1  0     0  0
 32 33  1  0     0  0
 33 34  1  0     0  0
 34 35  1  0     0  0
 35 36  1  0     0  0
M  END
> <standard_type>
pIC50

> <# Confs.>
25

> <canonical_smiles>
O=C1C2=C(C(C(CCCCCCCCCCCCCCCCC)=O)=NN2)C(N1C3=CC(F)=CC=C3)=O

> <standard_relation>
=

> <predicted_activity_value>
5.440093374963888

> <actual_activity_value>
5.8326826652518236

> <Compound>
25

> <publication_ID>
nan

> <standard_units>
nM

> hash
4545269703029799314

$$$$
25_
XXILIB    08252103423D 0   0.00000     0.00000

 36 38  0     1  0            999 V2000
  -14.6929   -0.2175    5.2488 F   0  0  0  0  0  1           0  0  0
  -10.3071    4.4699    4.1726 O   0  0  0  0  0  2           0  0  0
  -10.0077   -0.2216    4.1421 O   0  0  0  0  0  2           0  0  0
   -6.9585   -1.0666    4.1791 O   0  0  0  0  0  2           0  0  0
   -7.3017    3.4003    4.2016 N   0  0  0  0  0  3           0  0  0
   -6.3575    2.4285    4.2028 N   0  0  0  0  0  3           0  0  0
  -10.6110    2.0963    4.1549 N   0  0  2  0  0  3           0  0  0
  -14.0807    0.8351    4.6888 C   0  0  0  0  0  4           0  0  0
   -8.5468    2.8906    4.1848 C   0  0  0  0  0  4           0  0  0
   -7.0555    1.2699    4.1899 C   0  0  0  0  0  4           0  0  0
  -12.0291    2.0053    4.1345 C   0  0  0  0  0  4           0  0  0
   -8.4306    1.5356    4.1766 C   0  0  0  0  0  4           0  0  0
  -12.6883    0.9140    4.7219 C   0  0  0  0  0  4           0  0  0
  -14.8440    1.8252    4.0831 C   0  0  0  0  0  4           0  0  0
  -12.8069    3.0047    3.5232 C   0  0  0  0  0  4           0  0  0
  -14.2029    2.9131    3.4988 C   0  0  0  0  0  4           0  0  0
   -9.9047    3.3177    4.1717 C   0  0  0  0  0  4           0  0  0
   -9.7533    0.9715    4.1564 C   0  0  0  0  0  4           0  0  0
   -6.3442   -0.0000    4.1907 C   0  0  0  0  0  4           0  0  0
   -4.8306    0.0000    4.2191 C   0  0  0  0  0  4           0  0  0
   -4.2380   -0.0000    2.8129 C   0  0  0  0  0  4           0  0  0
   -2.7117    0.0000    2.8129 C   0  0  0  0  0  4           0  0  0
   -2.1190   -0.0000    1.4064 C   0  0  0  0  0  4           0  0  0
   -0.5927    0.0000    1.4064 C   0  0  0  0  0  4           0  0  0
    0.0000   -0.0000    0.0000 C   0  0  0  0  0  4           0  0  0
    1.5260    0.0000    0.0000 C   0  0  0  0  0  4           0  0  0
    2.1188    0.0000   -1.4064 C   0  0  0  0  0  4           0  0  0
    3.6450    0.0000   -1.4064 C   0  0  0  0  0  4           0  0  0
    4.2378    0.0000   -2.8129 C   0  0  0  0  0  4           0  0  0
    5.7640    0.0000   -2.8129 C   0  0  0  0  0  4           0  0  0
    6.3567    0.0000   -4.2193 C   0  0  0  0  0  4           0  0  0
    7.8830    0.0000   -4.2193 C   0  0  0  0  0  4           0  0  0
    8.4757    0.0000   -5.6258 C   0  0  0  0  0  4           0  0  0
   10.0019    0.0000   -5.6258 C   0  0  0  0  0  4           0  0  0
   10.5947    0.0000   -7.0322 C   0  0  0  0  0  4           0  0  0
   12.1162    0.0000   -7.0310 C   0  0  0  0  0  4           0  0  0
  1  8  1  0     0  0
  2 17  2  0     0  0
  3 18  2  0     0  0
  4 19  2  0     0  0
  5  6  1  0     0  0
  5  9  1  0     0  0
  6 10  2  0     0  0
  7 11  1  0     0  0
  7 17  1  0     0  0
  7 18  1  0     0  0
  8 13  1  0     0  0
  8 14  2  0     0  0
  9 12  2  0     0  0
  9 17  1  0     0  0
 10 12  1  0     0  0
 10 19  1  0     0  0
 11 13  2  0     0  0
 11 15  1  0     0  0
 12 18  1  0     0  0
 14 16  1  0     0  0
 15 16  2  0     0  0
 19 20  1  0     0  0
 20 21  1  0     0  0
 21 22  1  0     0  0
 22 23  1  0     0  0
 23 24  1  0     0  0
 24 25  1  0     0  0
 25 26  1  0     0  0
 26 27  1  0     0  0
 27 28  1  0     0  0
 28 29  1  0     0  0
 29 30  1  0     0  0
 30 31  1  0     0  0
 31 32  1  0     0  0
 32 33  1  0     0  0
 33 34  1  0     0  0
 34 35  1  0     0  0
 35 36  1  0     0  0
M  END
> <standard_type>
pIC50

> <# Confs.>
25

> <canonical_smiles>
O=C1C2=C(C(C(CCCCCCCCCCCCCCCCC)=O)=NN2)C(N1C3=CC(F)=CC=C3)=O

> <standard_relation>
=

> <predicted_activity_value>
5.440093374963888

> <actual_activity_value>
5.8326826652518236

> <Compound>
25

> <publication_ID>
nan

> <standard_units>
nM

> hash
4545269703029799314

$$$$
25_
XXILIB    08252103423D 0   0.00000     0.00000

 36 38  0     1  0            999 V2000
   -5.6285    9.7199    9.0514 F   0  0  0  0  0  1           0  0  0
   -6.8135    6.6574    5.5311 O   0  0  0  0  0  2           0  0  0
   -3.1734    4.0598    6.9813 O   0  0  0  0  0  2           0  0  0
   -3.3754    1.1783    5.6892 O   0  0  0  0  0  2           0  0  0
   -6.8276    3.6967    4.3431 N   0  0  0  0  0  3           0  0  0
   -6.3287    2.4462    4.1900 N   0  0  0  0  0  3           0  0  0
   -4.8393    5.7114    6.4977 N   0  0  2  0  0  3           0  0  0
   -4.7653    8.8261    8.5489 C   0  0  0  0  0  4           0  0  0
   -6.0639    4.4454    5.1596 C   0  0  0  0  0  4           0  0  0
   -5.2058    2.4285    4.9440 C   0  0  0  0  0  4           0  0  0
   -4.3608    6.8085    7.2639 C   0  0  0  0  0  4           0  0  0
   -5.0209    3.6712    5.5628 C   0  0  0  0  0  4           0  0  0
   -5.2502    7.7508    7.8040 C   0  0  0  0  0  4           0  0  0
   -3.4047    8.9895    8.7764 C   0  0  0  0  0  4           0  0  0
   -2.9847    6.9788    7.4976 C   0  0  0  0  0  4           0  0  0
   -2.5128    8.0614    8.2481 C   0  0  0  0  0  4           0  0  0
   -6.0127    5.7551    5.7152 C   0  0  0  0  0  4           0  0  0
   -4.1929    4.4546    6.4396 C   0  0  0  0  0  4           0  0  0
   -4.4009    1.2175    5.0097 C   0  0  0  0  0  4           0  0  0
   -4.8306    0.0000    4.2191 C   0  0  0  0  0  4           0  0  0
   -4.2380    0.0000    2.8129 C   0  0  0  0  0  4           0  0  0
   -2.7117    0.0000    2.8129 C   0  0  0  0  0  4           0  0  0
   -2.1190    0.0000    1.4064 C   0  0  0  0  0  4           0  0  0
   -0.5927    0.0000    1.4064 C   0  0  0  0  0  4           0  0  0
    0.0000    0.0000    0.0000 C   0  0  0  0  0  4           0  0  0
    1.5260    0.0000    0.0000 C   0  0  0  0  0  4           0  0  0
    2.1188    0.0000   -1.4064 C   0  0  0  0  0  4           0  0  0
    3.6450    0.0000   -1.4064 C   0  0  0  0  0  4           0  0  0
    4.2378    0.0000   -2.8129 C   0  0  0  0  0  4           0  0  0
    5.7640    0.0000   -2.8129 C   0  0  0  0  0  4           0  0  0
    6.3567    0.0000   -4.2193 C   0  0  0  0  0  4           0  0  0
    7.8830    0.0000   -4.2193 C   0  0  0  0  0  4           0  0  0
    8.4757    0.0000   -5.6258 C   0  0  0  0  0  4           0  0  0
   10.0019    0.0000   -5.6258 C   0  0  0  0  0  4           0  0  0
   10.5947    0.0000   -7.0322 C   0  0  0  0  0  4           0  0  0
   12.1162    0.0000   -7.0310 C   0  0  0  0  0  4           0  0  0
  1  8  1  0     0  0
  2 17  2  0     0  0
  3 18  2  0     0  0
  4 19  2  0     0  0
  5  6  1  0     0  0
  5  9  1  0     0  0
  6 10  2  0     0  0
  7 11  1  0     0  0
  7 17  1  0     0  0
  7 18  1  0     0  0
  8 13  1  0     0  0
  8 14  2  0     0  0
  9 12  2  0     0  0
  9 17  1  0     0  0
 10 12  1  0     0  0
 10 19  1  0     0  0
 11 13  2  0     0  0
 11 15  1  0     0  0
 12 18  1  0     0  0
 14 16  1  0     0  0
 15 16  2  0     0  0
 19 20  1  0     0  0
 20 21  1  0     0  0
 21 22  1  0     0  0
 22 23  1  0     0  0
 23 24  1  0     0  0
 24 25  1  0     0  0
 25 26  1  0     0  0
 26 27  1  0     0  0
 27 28  1  0     0  0
 28 29  1  0     0  0
 29 30  1  0     0  0
 30 31  1  0     0  0
 31 32  1  0     0  0
 32 33  1  0     0  0
 33 34  1  0     0  0
 34 35  1  0     0  0
 35 36  1  0     0  0
M  END
> <standard_type>
pIC50

> <# Confs.>
25

> <canonical_smiles>
O=C1C2=C(C(C(CCCCCCCCCCCCCCCCC)=O)=NN2)C(N1C3=CC(F)=CC=C3)=O

> <standard_relation>
=

> <predicted_activity_value>
5.440093374963888

> <actual_activity_value>
5.8326826652518236

> <Compound>
25

> <publication_ID>
nan

> <standard_units>
nM

> hash
4545269703029799314

$$$$
25_
XXILIB    08252103423D 0   0.00000     0.00000

 36 38  0     1  0            999 V2000
  -14.6550   -0.9435    3.2383 F   0  0  0  0  0  1           0  0  0
  -10.3783   -2.2838    7.9582 O   0  0  0  0  0  2           0  0  0
  -10.0035    0.0932    3.9197 O   0  0  0  0  0  2           0  0  0
   -6.9411    0.5333    3.2556 O   0  0  0  0  0  2           0  0  0
   -7.3563   -1.7252    7.1025 N   0  0  0  0  0  3           0  0  0
   -6.3967   -1.2250    6.2870 N   0  0  0  0  0  3           0  0  0
  -10.6439   -1.0867    5.9033 N   0  0  2  0  0  3           0  0  0
  -14.0761   -0.9749    4.4467 C   0  0  0  0  0  4           0  0  0
   -8.5929   -1.4761    6.6344 C   0  0  0  0  0  4           0  0  0
   -7.0759   -0.6459    5.2705 C   0  0  0  0  0  4           0  0  0
  -12.0604   -1.0467    5.7947 C   0  0  0  0  0  4           0  0  0
   -8.4549   -0.7896    5.4685 C   0  0  0  0  0  4           0  0  0
  -12.6848   -1.0204    4.5377 C   0  0  0  0  0  4           0  0  0
  -14.8722   -0.9579    5.5850 C   0  0  0  0  0  4           0  0  0
  -12.8712   -1.0296    6.9434 C   0  0  0  0  0  4           0  0  0
  -14.2657   -0.9856    6.8369 C   0  0  0  0  0  4           0  0  0
   -9.9574   -1.7004    6.9724 C   0  0  0  0  0  4           0  0  0
   -9.7683   -0.5117    4.9528 C   0  0  0  0  0  4           0  0  0
   -6.3442   -0.0000    4.1907 C   0  0  0  0  0  4           0  0  0
   -4.8306    0.0000    4.2191 C   0  0  0  0  0  4           0  0  0
   -4.2380   -0.0000    2.8129 C   0  0  0  0  0  4           0  0  0
   -2.7117    0.0000    2.8129 C   0  0  0  0  0  4           0  0  0
   -2.1190   -0.0000    1.4064 C   0  0  0  0  0  4           0  0  0
   -0.5927    0.0000    1.4064 C   0  0  0  0  0  4           0  0  0
    0.0000   -0.0000    0.0000 C   0  0  0  0  0  4           0  0  0
    1.5260    0.0000    0.0000 C   0  0  0  0  0  4           0  0  0
    2.1188    0.0000   -1.4064 C   0  0  0  0  0  4           0  0  0
    3.6450    0.0000   -1.4064 C   0  0  0  0  0  4           0  0  0
    4.2378    0.0000   -2.8129 C   0  0  0  0  0  4           0  0  0
    5.7640    0.0000   -2.8129 C   0  0  0  0  0  4           0  0  0
    6.3567    0.0000   -4.2193 C   0  0  0  0  0  4           0  0  0
    7.8830    0.0000   -4.2193 C   0  0  0  0  0  4           0  0  0
    8.4757    0.0000   -5.6258 C   0  0  0  0  0  4           0  0  0
   10.0019    0.0000   -5.6258 C   0  0  0  0  0  4           0  0  0
   10.5947    0.0000   -7.0322 C   0  0  0  0  0  4           0  0  0
   12.1162    0.0000   -7.0310 C   0  0  0  0  0  4           0  0  0
  1  8  1  0     0  0
  2 17  2  0     0  0
  3 18  2  0     0  0
  4 19  2  0     0  0
  5  6  1  0     0  0
  5  9  1  0     0  0
  6 10  2  0     0  0
  7 11  1  0     0  0
  7 17  1  0     0  0
  7 18  1  0     0  0
  8 13  1  0     0  0
  8 14  2  0     0  0
  9 12  2  0     0  0
  9 17  1  0     0  0
 10 12  1  0     0  0
 10 19  1  0     0  0
 11 13  2  0     0  0
 11 15  1  0     0  0
 12 18  1  0     0  0
 14 16  1  0     0  0
 15 16  2  0     0  0
 19 20  1  0     0  0
 20 21  1  0     0  0
 21 22  1  0     0  0
 22 23  1  0     0  0
 23 24  1  0     0  0
 24 25  1  0     0  0
 25 26  1  0     0  0
 26 27  1  0     0  0
 27 28  1  0     0  0
 28 29  1  0     0  0
 29 30  1  0     0  0
 30 31  1  0     0  0
 31 32  1  0     0  0
 32 33  1  0     0  0
 33 34  1  0     0  0
 34 35  1  0     0  0
 35 36  1  0     0  0
M  END
> <standard_type>
pIC50

> <# Confs.>
25

> <canonical_smiles>
O=C1C2=C(C(C(CCCCCCCCCCCCCCCCC)=O)=NN2)C(N1C3=CC(F)=CC=C3)=O

> <standard_relation>
=

> <predicted_activity_value>
5.440093374963888

> <actual_activity_value>
5.8326826652518236

> <Compound>
25

> <publication_ID>
nan

> <standard_units>
nM

> hash
4545269703029799314

$$$$
25_
XXILIB    08252103423D 0   0.00000     0.00000

 36 38  0     1  0            999 V2000
  -14.6779   -1.1610    4.4531 F   0  0  0  0  0  1           0  0  0
  -10.3794    2.1860    8.0147 O   0  0  0  0  0  2           0  0  0
  -10.0039   -0.1284    3.9400 O   0  0  0  0  0  2           0  0  0
   -6.9411   -0.5333    3.2556 O   0  0  0  0  0  2           0  0  0
   -7.3568    1.6751    7.1313 N   0  0  0  0  0  3           0  0  0
   -6.3969    1.2035    6.2994 N   0  0  0  0  0  3           0  0  0
  -10.6448    1.0096    5.9478 N   0  0  2  0  0  3           0  0  0
  -14.0882   -0.1398    5.0902 C   0  0  0  0  0  4           0  0  0
   -8.5935    1.4145    6.6699 C   0  0  0  0  0  4           0  0  0
   -7.0761    0.6240    5.2832 C   0  0  0  0  0  4           0  0  0
  -12.0613    0.9587    5.8455 C   0  0  0  0  0  4           0  0  0
   -8.4554    0.7460    5.4936 C   0  0  0  0  0  4           0  0  0
  -12.6970   -0.1064    5.1881 C   0  0  0  0  0  4           0  0  0
  -14.8732    0.8673    5.6373 C   0  0  0  0  0  4           0  0  0
  -12.8610    1.9750    6.3977 C   0  0  0  0  0  4           0  0  0
  -14.2555    1.9276    6.2931 C   0  0  0  0  0  4           0  0  0
   -9.9583    1.6173    7.0204 C   0  0  0  0  0  4           0  0  0
   -9.7688    0.4599    4.9827 C   0  0  0  0  0  4           0  0  0
   -6.3442   -0.0000    4.1907 C   0  0  0  0  0  4           0  0  0
   -4.8306    0.0000    4.2191 C   0  0  0  0  0  4           0  0  0
   -4.2380   -0.0000    2.8129 C   0  0  0  0  0  4           0  0  0
   -2.7117    0.0000    2.8129 C   0  0  0  0  0  4           0  0  0
   -2.1190   -0.0000    1.4064 C   0  0  0  0  0  4           0  0  0
   -0.5927    0.0000    1.4064 C   0  0  0  0  0  4           0  0  0
    0.0000   -0.0000    0.0000 C   0  0  0  0  0  4           0  0  0
    1.5260    0.0000    0.0000 C   0  0  0  0  0  4           0  0  0
    2.1188    0.0000   -1.4064 C   0  0  0  0  0  4           0  0  0
    3.6450    0.0000   -1.4064 C   0  0  0  0  0  4           0  0  0
    4.2378    0.0000   -2.8129 C   0  0  0  0  0  4           0  0  0
    5.7640    0.0000   -2.8129 C   0  0  0  0  0  4           0  0  0
    6.3567    0.0000   -4.2193 C   0  0  0  0  0  4           0  0  0
    7.8830    0.0000   -4.2193 C   0  0  0  0  0  4           0  0  0
    8.4757    0.0000   -5.6258 C   0  0  0  0  0  4           0  0  0
   10.0019    0.0000   -5.6258 C   0  0  0  0  0  4           0  0  0
   10.5947    0.0000   -7.0322 C   0  0  0  0  0  4           0  0  0
   12.1162    0.0000   -7.0310 C   0  0  0  0  0  4           0  0  0
  1  8  1  0     0  0
  2 17  2  0     0  0
  3 18  2  0     0  0
  4 19  2  0     0  0
  5  6  1  0     0  0
  5  9  1  0     0  0
  6 10  2  0     0  0
  7 11  1  0     0  0
  7 17  1  0     0  0
  7 18  1  0     0  0
  8 13  1  0     0  0
  8 14  2  0     0  0
  9 12  2  0     0  0
  9 17  1  0     0  0
 10 12  1  0     0  0
 10 19  1  0     0  0
 11 13  2  0     0  0
 11 15  1  0     0  0
 12 18  1  0     0  0
 14 16  1  0     0  0
 15 16  2  0     0  0
 19 20  1  0     0  0
 20 21  1  0     0  0
 21 22  1  0     0  0
 22 23  1  0     0  0
 23 24  1  0     0  0
 24 25  1  0     0  0
 25 26  1  0     0  0
 26 27  1  0     0  0
 27 28  1  0     0  0
 28 29  1  0     0  0
 29 30  1  0     0  0
 30 31  1  0     0  0
 31 32  1  0     0  0
 32 33  1  0     0  0
 33 34  1  0     0  0
 34 35  1  0     0  0
 35 36  1  0     0  0
M  END
> <standard_type>
pIC50

> <# Confs.>
25

> <canonical_smiles>
O=C1C2=C(C(C(CCCCCCCCCCCCCCCCC)=O)=NN2)C(N1C3=CC(F)=CC=C3)=O

> <standard_relation>
=

> <predicted_activity_value>
5.440093374963888

> <actual_activity_value>
5.8326826652518236

> <Compound>
25

> <publication_ID>
nan

> <standard_units>
nM

> hash
4545269703029799314

$$$$
25_
XXILIB    08252103423D 0   0.00000     0.00000

 36 38  0     1  0            999 V2000
   -2.4850    7.4639   10.3184 F   0  0  0  0  0  1           0  0  0
   -6.8135    6.6574    5.5311 O   0  0  0  0  0  2           0  0  0
   -3.1734    4.0598    6.9813 O   0  0  0  0  0  2           0  0  0
   -3.3754    1.1783    5.6892 O   0  0  0  0  0  2           0  0  0
   -6.8276    3.6967    4.3431 N   0  0  0  0  0  3           0  0  0
   -6.3287    2.4462    4.1900 N   0  0  0  0  0  3           0  0  0
   -4.8393    5.7114    6.4977 N   0  0  2  0  0  3           0  0  0
   -3.1737    7.6843    9.1898 C   0  0  0  0  0  4           0  0  0
   -6.0639    4.4454    5.1596 C   0  0  0  0  0  4           0  0  0
   -5.2058    2.4285    4.9440 C   0  0  0  0  0  4           0  0  0
   -4.3608    6.8085    7.2639 C   0  0  0  0  0  4           0  0  0
   -5.0209    3.6712    5.5628 C   0  0  0  0  0  4           0  0  0
   -3.6318    6.5974    8.4448 C   0  0  0  0  0  4           0  0  0
   -3.4213    8.9901    8.7858 C   0  0  0  0  0  4           0  0  0
   -4.6080    8.1325    6.8596 C   0  0  0  0  0  4           0  0  0
   -4.1411    9.2129    7.6162 C   0  0  0  0  0  4           0  0  0
   -6.0127    5.7551    5.7152 C   0  0  0  0  0  4           0  0  0
   -4.1929    4.4546    6.4396 C   0  0  0  0  0  4           0  0  0
   -4.4009    1.2175    5.0097 C   0  0  0  0  0  4           0  0  0
   -4.8306    0.0000    4.2191 C   0  0  0  0  0  4           0  0  0
   -4.2380    0.0000    2.8129 C   0  0  0  0  0  4           0  0  0
   -2.7117    0.0000    2.8129 C   0  0  0  0  0  4           0  0  0
   -2.1190    0.0000    1.4064 C   0  0  0  0  0  4           0  0  0
   -0.5927    0.0000    1.4064 C   0  0  0  0  0  4           0  0  0
    0.0000    0.0000    0.0000 C   0  0  0  0  0  4           0  0  0
    1.5260    0.0000    0.0000 C   0  0  0  0  0  4           0  0  0
    2.1188    0.0000   -1.4064 C   0  0  0  0  0  4           0  0  0
    3.6450    0.0000   -1.4064 C   0  0  0  0  0  4           0  0  0
    4.2378    0.0000   -2.8129 C   0  0  0  0  0  4           0  0  0
    5.7640    0.0000   -2.8129 C   0  0  0  0  0  4           0  0  0
    6.3567    0.0000   -4.2193 C   0  0  0  0  0  4           0  0  0
    7.8830    0.0000   -4.2193 C   0  0  0  0  0  4           0  0  0
    8.4757    0.0000   -5.6258 C   0  0  0  0  0  4           0  0  0
   10.0019    0.0000   -5.6258 C   0  0  0  0  0  4           0  0  0
   10.5947    0.0000   -7.0322 C   0  0  0  0  0  4           0  0  0
   12.1162    0.0000   -7.0310 C   0  0  0  0  0  4           0  0  0
  1  8  1  0     0  0
  2 17  2  0     0  0
  3 18  2  0     0  0
  4 19  2  0     0  0
  5  6  1  0     0  0
  5  9  1  0     0  0
  6 10  2  0     0  0
  7 11  1  0     0  0
  7 17  1  0     0  0
  7 18  1  0     0  0
  8 13  1  0     0  0
  8 14  2  0     0  0
  9 12  2  0     0  0
  9 17  1  0     0  0
 10 12  1  0     0  0
 10 19  1  0     0  0
 11 13  2  0     0  0
 11 15  1  0     0  0
 12 18  1  0     0  0
 14 16  1  0     0  0
 15 16  2  0     0  0
 19 20  1  0     0  0
 20 21  1  0     0  0
 21 22  1  0     0  0
 22 23  1  0     0  0
 23 24  1  0     0  0
 24 25  1  0     0  0
 25 26  1  0     0  0
 26 27  1  0     0  0
 27 28  1  0     0  0
 28 29  1  0     0  0
 29 30  1  0     0  0
 30 31  1  0     0  0
 31 32  1  0     0  0
 32 33  1  0     0  0
 33 34  1  0     0  0
 34 35  1  0     0  0
 35 36  1  0     0  0
M  END
> <standard_type>
pIC50

> <# Confs.>
25

> <canonical_smiles>
O=C1C2=C(C(C(CCCCCCCCCCCCCCCCC)=O)=NN2)C(N1C3=CC(F)=CC=C3)=O

> <standard_relation>
=

> <predicted_activity_value>
5.440093374963888

> <actual_activity_value>
5.8326826652518236

> <Compound>
25

> <publication_ID>
nan

> <standard_units>
nM

> hash
4545269703029799314

$$$$
25_
XXILIB    08252103423D 0   0.00000     0.00000

 36 38  0     1  0            999 V2000
   -1.2181    8.1962    8.4787 F   0  0  0  0  0  1           0  0  0
   -6.8135    6.6574    5.5311 O   0  0  0  0  0  2           0  0  0
   -3.1734    4.0598    6.9813 O   0  0  0  0  0  2           0  0  0
   -3.3754    1.1783    5.6892 O   0  0  0  0  0  2           0  0  0
   -6.8276    3.6967    4.3431 N   0  0  0  0  0  3           0  0  0
   -6.3287    2.4462    4.1900 N   0  0  0  0  0  3           0  0  0
   -4.8393    5.7114    6.4977 N   0  0  2  0  0  3           0  0  0
   -2.5327    8.0551    8.2585 C   0  0  0  0  0  4           0  0  0
   -6.0639    4.4454    5.1596 C   0  0  0  0  0  4           0  0  0
   -5.2058    2.4285    4.9440 C   0  0  0  0  0  4           0  0  0
   -4.3608    6.8085    7.2639 C   0  0  0  0  0  4           0  0  0
   -5.0209    3.6712    5.5628 C   0  0  0  0  0  4           0  0  0
   -2.9872    6.9766    7.4992 C   0  0  0  0  0  4           0  0  0
   -3.4173    8.9831    8.7933 C   0  0  0  0  0  4           0  0  0
   -5.2515    7.7512    7.8074 C   0  0  0  0  0  4           0  0  0
   -4.7812    8.8289    8.5657 C   0  0  0  0  0  4           0  0  0
   -6.0127    5.7551    5.7152 C   0  0  0  0  0  4           0  0  0
   -4.1929    4.4546    6.4396 C   0  0  0  0  0  4           0  0  0
   -4.4009    1.2175    5.0097 C   0  0  0  0  0  4           0  0  0
   -4.8306    0.0000    4.2191 C   0  0  0  0  0  4           0  0  0
   -4.2380    0.0000    2.8129 C   0  0  0  0  0  4           0  0  0
   -2.7117    0.0000    2.8129 C   0  0  0  0  0  4           0  0  0
   -2.1190    0.0000    1.4064 C   0  0  0  0  0  4           0  0  0
   -0.5927    0.0000    1.4064 C   0  0  0  0  0  4           0  0  0
    0.0000    0.0000    0.0000 C   0  0  0  0  0  4           0  0  0
    1.5260    0.0000    0.0000 C   0  0  0  0  0  4           0  0  0
    2.1188    0.0000   -1.4064 C   0  0  0  0  0  4           0  0  0
    3.6450    0.0000   -1.4064 C   0  0  0  0  0  4           0  0  0
    4.2378    0.0000   -2.8129 C   0  0  0  0  0  4           0  0  0
    5.7640    0.0000   -2.8129 C   0  0  0  0  0  4           0  0  0
    6.3567    0.0000   -4.2193 C   0  0  0  0  0  4           0  0  0
    7.8830    0.0000   -4.2193 C   0  0  0  0  0  4           0  0  0
    8.4757    0.0000   -5.6258 C   0  0  0  0  0  4           0  0  0
   10.0019    0.0000   -5.6258 C   0  0  0  0  0  4           0  0  0
   10.5947    0.0000   -7.0322 C   0  0  0  0  0  4           0  0  0
   12.1162    0.0000   -7.0310 C   0  0  0  0  0  4           0  0  0
  1  8  1  0     0  0
  2 17  2  0     0  0
  3 18  2  0     0  0
  4 19  2  0     0  0
  5  6  1  0     0  0
  5  9  1  0     0  0
  6 10  2  0     0  0
  7 11  1  0     0  0
  7 17  1  0     0  0
  7 18  1  0     0  0
  8 13  1  0     0  0
  8 14  2  0     0  0
  9 12  2  0     0  0
  9 17  1  0     0  0
 10 12  1  0     0  0
 10 19  1  0     0  0
 11 13  2  0     0  0
 11 15  1  0     0  0
 12 18  1  0     0  0
 14 16  1  0     0  0
 15 16  2  0     0  0
 19 20  1  0     0  0
 20 21  1  0     0  0
 21 22  1  0     0  0
 22 23  1  0     0  0
 23 24  1  0     0  0
 24 25  1  0     0  0
 25 26  1  0     0  0
 26 27  1  0     0  0
 27 28  1  0     0  0
 28 29  1  0     0  0
 29 30  1  0     0  0
 30 31  1  0     0  0
 31 32  1  0     0  0
 32 33  1  0     0  0
 33 34  1  0     0  0
 34 35  1  0     0  0
 35 36  1  0     0  0
M  END
> <standard_type>
pIC50

> <# Confs.>
25

> <canonical_smiles>
O=C1C2=C(C(C(CCCCCCCCCCCCCCCCC)=O)=NN2)C(N1C3=CC(F)=CC=C3)=O

> <standard_relation>
=

> <predicted_activity_value>
5.440093374963888

> <actual_activity_value>
5.8326826652518236

> <Compound>
25

> <publication_ID>
nan

> <standard_units>
nM

> hash
4545269703029799314

$$$$
25_
XXILIB    08252103423D 0   0.00000     0.00000

 36 38  0     1  0            999 V2000
   -1.1264    9.9557   13.7218 F   0  0  0  0  0  1           0  0  0
   -1.8093    5.4326   12.2015 O   0  0  0  0  0  2           0  0  0
    0.6286    6.6814    8.3808 O   0  0  0  0  0  2           0  0  0
    0.2285    4.4903    6.1332 O   0  0  0  0  0  2           0  0  0
   -2.0717    3.3454    9.8032 N   0  0  0  0  0  3           0  0  0
   -1.8099    2.8901    8.5542 N   0  0  0  0  0  3           0  0  0
   -0.4517    6.4338   10.5042 N   0  0  2  0  0  3           0  0  0
   -0.3519    9.3772   12.7934 C   0  0  0  0  0  4           0  0  0
   -1.4527    4.5138   10.0517 C   0  0  0  0  0  4           0  0  0
   -0.9961    3.8239    8.0106 C   0  0  0  0  0  4           0  0  0
   -0.0059    7.6068   11.1713 C   0  0  0  0  0  4           0  0  0
   -0.7570    4.8506    8.9326 C   0  0  0  0  0  4           0  0  0
   -0.8001    8.2227   12.1513 C   0  0  0  0  0  4           0  0  0
    0.8803    9.9403   12.4858 C   0  0  0  0  0  4           0  0  0
    1.2405    8.1809   10.8643 C   0  0  0  0  0  4           0  0  0
    1.6779    9.3384   11.5176 C   0  0  0  0  0  4           0  0  0
   -1.3043    5.4750   11.0913 C   0  0  0  0  0  4           0  0  0
   -0.0856    6.0981    9.1797 C   0  0  0  0  0  4           0  0  0
   -0.5128    3.6536    6.6483 C   0  0  0  0  0  4           0  0  0
   -0.9425    2.4360    5.8578 C   0  0  0  0  0  4           0  0  0
   -0.3498    2.4360    4.4515 C   0  0  0  0  0  4           0  0  0
   -0.7676    1.2180    3.6322 C   0  0  0  0  0  4           0  0  0
   -0.1749    1.2180    2.2258 C   0  0  0  0  0  4           0  0  0
   -0.5927    0.0000    1.4064 C   0  0  0  0  0  4           0  0  0
    0.0000    0.0000    0.0000 C   0  0  0  0  0  4           0  0  0
    1.5260    0.0000    0.0000 C   0  0  0  0  0  4           0  0  0
    2.1188    0.0000   -1.4064 C   0  0  0  0  0  4           0  0  0
    3.6450    0.0000   -1.4064 C   0  0  0  0  0  4           0  0  0
    4.2378    0.0000   -2.8129 C   0  0  0  0  0  4           0  0  0
    5.7640    0.0000   -2.8129 C   0  0  0  0  0  4           0  0  0
    6.3567    0.0000   -4.2193 C   0  0  0  0  0  4           0  0  0
    7.8830    0.0000   -4.2193 C   0  0  0  0  0  4           0  0  0
    8.4757    0.0000   -5.6258 C   0  0  0  0  0  4           0  0  0
   10.0019    0.0000   -5.6258 C   0  0  0  0  0  4           0  0  0
   10.5947    0.0000   -7.0322 C   0  0  0  0  0  4           0  0  0
   12.1162    0.0000   -7.0310 C   0  0  0  0  0  4           0  0  0
  1  8  1  0     0  0
  2 17  2  0     0  0
  3 18  2  0     0  0
  4 19  2  0     0  0
  5  6  1  0     0  0
  5  9  1  0     0  0
  6 10  2  0     0  0
  7 11  1  0     0  0
  7 17  1  0     0  0
  7 18  1  0     0  0
  8 13  1  0     0  0
  8 14  2  0     0  0
  9 12  2  0     0  0
  9 17  1  0     0  0
 10 12  1  0     0  0
 10 19  1  0     0  0
 11 13  2  0     0  0
 11 15  1  0     0  0
 12 18  1  0     0  0
 14 16  1  0     0  0
 15 16  2  0     0  0
 19 20  1  0     0  0
 20 21  1  0     0  0
 21 22  1  0     0  0
 22 23  1  0     0  0
 23 24  1  0     0  0
 24 25  1  0     0  0
 25 26  1  0     0  0
 26 27  1  0     0  0
 27 28  1  0     0  0
 28 29  1  0     0  0
 29 30  1  0     0  0
 30 31  1  0     0  0
 31 32  1  0     0  0
 32 33  1  0     0  0
 33 34  1  0     0  0
 34 35  1  0     0  0
 35 36  1  0     0  0
M  END
> <standard_type>
pIC50

> <# Confs.>
25

> <canonical_smiles>
O=C1C2=C(C(C(CCCCCCCCCCCCCCCCC)=O)=NN2)C(N1C3=CC(F)=CC=C3)=O

> <standard_relation>
=

> <predicted_activity_value>
5.440093374963888

> <actual_activity_value>
5.8326826652518236

> <Compound>
25

> <publication_ID>
nan

> <standard_units>
nM

> hash
4545269703029799314

$$$$
25_
XXILIB    08252103423D 0   0.00000     0.00000

 36 38  0     1  0            999 V2000
  -15.0028   -1.2617    7.8737 F   0  0  0  0  0  1           0  0  0
  -10.3901   -0.0565    8.5852 O   0  0  0  0  0  2           0  0  0
  -10.0032   -0.0204    3.9002 O   0  0  0  0  0  2           0  0  0
   -6.9384   -0.0000    3.1127 O   0  0  0  0  0  2           0  0  0
   -7.3651   -0.0289    7.5724 N   0  0  0  0  0  3           0  0  0
   -6.4030   -0.0124    6.6185 N   0  0  0  0  0  3           0  0  0
  -10.6496   -0.0445    6.2064 N   0  0  2  0  0  3           0  0  0
  -14.2548   -0.6666    6.9341 C   0  0  0  0  0  4           0  0  0
   -8.6005   -0.0355    7.0393 C   0  0  0  0  0  4           0  0  0
   -7.0792   -0.0127    5.4470 C   0  0  0  0  0  4           0  0  0
  -12.0659   -0.0508    6.0887 C   0  0  0  0  0  4           0  0  0
   -8.4590   -0.0251    5.6867 C   0  0  0  0  0  4           0  0  0
  -12.8661   -0.6630    7.0662 C   0  0  0  0  0  4           0  0  0
  -14.8764   -0.0683    5.8453 C   0  0  0  0  0  4           0  0  0
  -12.7005    0.5535    4.9890 C   0  0  0  0  0  4           0  0  0
  -14.0947    0.5435    4.8704 C   0  0  0  0  0  4           0  0  0
   -9.9662   -0.0480    7.4408 C   0  0  0  0  0  4           0  0  0
   -9.7710   -0.0299    5.0979 C   0  0  0  0  0  4           0  0  0
   -6.3442   -0.0000    4.1907 C   0  0  0  0  0  4           0  0  0
   -4.8306    0.0000    4.2191 C   0  0  0  0  0  4           0  0  0
   -4.2380   -0.0000    2.8129 C   0  0  0  0  0  4           0  0  0
   -2.7117    0.0000    2.8129 C   0  0  0  0  0  4           0  0  0
   -2.1190   -0.0000    1.4064 C   0  0  0  0  0  4           0  0  0
   -0.5927    0.0000    1.4064 C   0  0  0  0  0  4           0  0  0
    0.0000   -0.0000    0.0000 C   0  0  0  0  0  4           0  0  0
    1.5260   -0.0000    0.0000 C   0  0  0  0  0  4           0  0  0
    2.1188    0.0000   -1.4064 C   0  0  0  0  0  4           0  0  0
    3.6450    0.0000   -1.4064 C   0  0  0  0  0  4           0  0  0
    4.2378   -1.2180   -0.7032 C   0  0  0  0  0  4           0  0  0
    5.7640   -1.2180   -0.7032 C   0  0  0  0  0  4           0  0  0
    6.3567   -2.4360    0.0000 C   0  0  0  0  0  4           0  0  0
    7.8830   -2.4360    0.0000 C   0  0  0  0  0  4           0  0  0
    8.4757   -3.6540    0.7032 C   0  0  0  0  0  4           0  0  0
   10.0019   -3.6540    0.7032 C   0  0  0  0  0  4           0  0  0
   10.5947   -4.8721    1.4064 C   0  0  0  0  0  4           0  0  0
   12.1162   -4.8710    1.4058 C   0  0  0  0  0  4           0  0  0
  1  8  1  0     0  0
  2 17  2  0     0  0
  3 18  2  0     0  0
  4 19  2  0     0  0
  5  6  1  0     0  0
  5  9  1  0     0  0
  6 10  2  0     0  0
  7 11  1  0     0  0
  7 17  1  0     0  0
  7 18  1  0     0  0
  8 13  1  0     0  0
  8 14  2  0     0  0
  9 12  2  0     0  0
  9 17  1  0     0  0
 10 12  1  0     0  0
 10 19  1  0     0  0
 11 13  2  0     0  0
 11 15  1  0     0  0
 12 18  1  0     0  0
 14 16  1  0     0  0
 15 16  2  0     0  0
 19 20  1  0     0  0
 20 21  1  0     0  0
 21 22  1  0     0  0
 22 23  1  0     0  0
 23 24  1  0     0  0
 24 25  1  0     0  0
 25 26  1  0     0  0
 26 27  1  0     0  0
 27 28  1  0     0  0
 28 29  1  0     0  0
 29 30  1  0     0  0
 30 31  1  0     0  0
 31 32  1  0     0  0
 32 33  1  0     0  0
 33 34  1  0     0  0
 34 35  1  0     0  0
 35 36  1  0     0  0
M  END
> <standard_type>
pIC50

> <# Confs.>
25

> <canonical_smiles>
O=C1C2=C(C(C(CCCCCCCCCCCCCCCCC)=O)=NN2)C(N1C3=CC(F)=CC=C3)=O

> <standard_relation>
=

> <predicted_activity_value>
5.440093374963888

> <actual_activity_value>
5.8326826652518236

> <Compound>
25

> <publication_ID>
nan

> <standard_units>
nM

> hash
4545269703029799314

$$$$
25_
XXILIB    08252103423D 0   0.00000     0.00000

 36 38  0     1  0            999 V2000
  -15.0028   -1.2617    7.8737 F   0  0  0  0  0  1           0  0  0
  -10.3901   -0.0565    8.5852 O   0  0  0  0  0  2           0  0  0
  -10.0032   -0.0204    3.9002 O   0  0  0  0  0  2           0  0  0
   -6.9384   -0.0000    3.1127 O   0  0  0  0  0  2           0  0  0
   -7.3651   -0.0289    7.5724 N   0  0  0  0  0  3           0  0  0
   -6.4030   -0.0124    6.6185 N   0  0  0  0  0  3           0  0  0
  -10.6496   -0.0445    6.2064 N   0  0  2  0  0  3           0  0  0
  -14.2548   -0.6666    6.9341 C   0  0  0  0  0  4           0  0  0
   -8.6005   -0.0355    7.0393 C   0  0  0  0  0  4           0  0  0
   -7.0792   -0.0127    5.4470 C   0  0  0  0  0  4           0  0  0
  -12.0659   -0.0508    6.0887 C   0  0  0  0  0  4           0  0  0
   -8.4590   -0.0251    5.6867 C   0  0  0  0  0  4           0  0  0
  -12.8661   -0.6630    7.0662 C   0  0  0  0  0  4           0  0  0
  -14.8764   -0.0683    5.8453 C   0  0  0  0  0  4           0  0  0
  -12.7005    0.5535    4.9890 C   0  0  0  0  0  4           0  0  0
  -14.0947    0.5435    4.8704 C   0  0  0  0  0  4           0  0  0
   -9.9662   -0.0480    7.4408 C   0  0  0  0  0  4           0  0  0
   -9.7710   -0.0299    5.0979 C   0  0  0  0  0  4           0  0  0
   -6.3442   -0.0000    4.1907 C   0  0  0  0  0  4           0  0  0
   -4.8306    0.0000    4.2191 C   0  0  0  0  0  4           0  0  0
   -4.2380   -0.0000    2.8129 C   0  0  0  0  0  4           0  0  0
   -2.7117    0.0000    2.8129 C   0  0  0  0  0  4           0  0  0
   -2.1190   -0.0000    1.4064 C   0  0  0  0  0  4           0  0  0
   -0.5927    0.0000    1.4064 C   0  0  0  0  0  4           0  0  0
    0.0000   -0.0000    0.0000 C   0  0  0  0  0  4           0  0  0
    1.5260   -0.0000   -0.0000 C   0  0  0  0  0  4           0  0  0
    2.1188    0.0000   -1.4064 C   0  0  0  0  0  4           0  0  0
    3.6450   -0.0000   -1.4064 C   0  0  0  0  0  4           0  0  0
    4.2378    0.0000   -2.8129 C   0  0  0  0  0  4           0  0  0
    3.8199    1.2180   -3.6322 C   0  0  0  0  0  4           0  0  0
    4.4127    1.2180   -5.0386 C   0  0  0  0  0  4           0  0  0
    3.9948    2.4360   -5.8580 C   0  0  0  0  0  4           0  0  0
    4.5876    2.4360   -7.2644 C   0  0  0  0  0  4           0  0  0
    4.1697    3.6540   -8.0837 C   0  0  0  0  0  4           0  0  0
    4.7625    3.6540   -9.4902 C   0  0  0  0  0  4           0  0  0
    4.3453    4.8687  -10.3060 C   0  0  0  0  0  4           0  0  0
  1  8  1  0     0  0
  2 17  2  0     0  0
  3 18  2  0     0  0
  4 19  2  0     0  0
  5  6  1  0     0  0
  5  9  1  0     0  0
  6 10  2  0     0  0
  7 11  1  0     0  0
  7 17  1  0     0  0
  7 18  1  0     0  0
  8 13  1  0     0  0
  8 14  2  0     0  0
  9 12  2  0     0  0
  9 17  1  0     0  0
 10 12  1  0     0  0
 10 19  1  0     0  0
 11 13  2  0     0  0
 11 15  1  0     0  0
 12 18  1  0     0  0
 14 16  1  0     0  0
 15 16  2  0     0  0
 19 20  1  0     0  0
 20 21  1  0     0  0
 21 22  1  0     0  0
 22 23  1  0     0  0
 23 24  1  0     0  0
 24 25  1  0     0  0
 25 26  1  0     0  0
 26 27  1  0     0  0
 27 28  1  0     0  0
 28 29  1  0     0  0
 29 30  1  0     0  0
 30 31  1  0     0  0
 31 32  1  0     0  0
 32 33  1  0     0  0
 33 34  1  0     0  0
 34 35  1  0     0  0
 35 36  1  0     0  0
M  END
> <standard_type>
pIC50

> <# Confs.>
25

> <canonical_smiles>
O=C1C2=C(C(C(CCCCCCCCCCCCCCCCC)=O)=NN2)C(N1C3=CC(F)=CC=C3)=O

> <standard_relation>
=

> <predicted_activity_value>
5.440093374963888

> <actual_activity_value>
5.8326826652518236

> <Compound>
25

> <publication_ID>
nan

> <standard_units>
nM

> hash
4545269703029799314

$$$$
25_
XXILIB    08252103423D 0   0.00000     0.00000

 36 38  0     1  0            999 V2000
  -15.0028   -1.2617    7.8737 F   0  0  0  0  0  1           0  0  0
  -10.3901   -0.0565    8.5852 O   0  0  0  0  0  2           0  0  0
  -10.0032   -0.0204    3.9002 O   0  0  0  0  0  2           0  0  0
   -6.9384   -0.0000    3.1127 O   0  0  0  0  0  2           0  0  0
   -7.3651   -0.0289    7.5724 N   0  0  0  0  0  3           0  0  0
   -6.4030   -0.0124    6.6185 N   0  0  0  0  0  3           0  0  0
  -10.6496   -0.0445    6.2064 N   0  0  2  0  0  3           0  0  0
  -14.2548   -0.6666    6.9341 C   0  0  0  0  0  4           0  0  0
   -8.6005   -0.0355    7.0393 C   0  0  0  0  0  4           0  0  0
   -7.0792   -0.0127    5.4470 C   0  0  0  0  0  4           0  0  0
  -12.0659   -0.0508    6.0887 C   0  0  0  0  0  4           0  0  0
   -8.4590   -0.0251    5.6867 C   0  0  0  0  0  4           0  0  0
  -12.8661   -0.6630    7.0662 C   0  0  0  0  0  4           0  0  0
  -14.8764   -0.0683    5.8453 C   0  0  0  0  0  4           0  0  0
  -12.7005    0.5535    4.9890 C   0  0  0  0  0  4           0  0  0
  -14.0947    0.5435    4.8704 C   0  0  0  0  0  4           0  0  0
   -9.9662   -0.0480    7.4408 C   0  0  0  0  0  4           0  0  0
   -9.7710   -0.0299    5.0979 C   0  0  0  0  0  4           0  0  0
   -6.3442   -0.0000    4.1907 C   0  0  0  0  0  4           0  0  0
   -4.8306    0.0000    4.2191 C   0  0  0  0  0  4           0  0  0
   -4.2380   -0.0000    2.8129 C   0  0  0  0  0  4           0  0  0
   -2.7117    0.0000    2.8129 C   0  0  0  0  0  4           0  0  0
   -2.1190   -0.0000    1.4064 C   0  0  0  0  0  4           0  0  0
   -0.5927    0.0000    1.4064 C   0  0  0  0  0  4           0  0  0
    0.0000   -0.0000    0.0000 C   0  0  0  0  0  4           0  0  0
    1.5260   -0.0000    0.0000 C   0  0  0  0  0  4           0  0  0
    2.1188    0.0000   -1.4064 C   0  0  0  0  0  4           0  0  0
    1.7009    1.2180   -2.2258 C   0  0  0  0  0  4           0  0  0
    2.2937    1.2180   -3.6322 C   0  0  0  0  0  4           0  0  0
    1.8759    2.4360   -4.4515 C   0  0  0  0  0  4           0  0  0
    2.4686    2.4360   -5.8580 C   0  0  0  0  0  4           0  0  0
    2.0508    3.6540   -6.6773 C   0  0  0  0  0  4           0  0  0
    2.6435    3.6540   -8.0837 C   0  0  0  0  0  4           0  0  0
    2.2257    4.8721   -8.9030 C   0  0  0  0  0  4           0  0  0
    2.8184    4.8721  -10.3095 C   0  0  0  0  0  4           0  0  0
    2.4012    6.0867  -11.1253 C   0  0  0  0  0  4           0  0  0
  1  8  1  0     0  0
  2 17  2  0     0  0
  3 18  2  0     0  0
  4 19  2  0     0  0
  5  6  1  0     0  0
  5  9  1  0     0  0
  6 10  2  0     0  0
  7 11  1  0     0  0
  7 17  1  0     0  0
  7 18  1  0     0  0
  8 13  1  0     0  0
  8 14  2  0     0  0
  9 12  2  0     0  0
  9 17  1  0     0  0
 10 12  1  0     0  0
 10 19  1  0     0  0
 11 13  2  0     0  0
 11 15  1  0     0  0
 12 18  1  0     0  0
 14 16  1  0     0  0
 15 16  2  0     0  0
 19 20  1  0     0  0
 20 21  1  0     0  0
 21 22  1  0     0  0
 22 23  1  0     0  0
 23 24  1  0     0  0
 24 25  1  0     0  0
 25 26  1  0     0  0
 26 27  1  0     0  0
 27 28  1  0     0  0
 28 29  1  0     0  0
 29 30  1  0     0  0
 30 31  1  0     0  0
 31 32  1  0     0  0
 32 33  1  0     0  0
 33 34  1  0     0  0
 34 35  1  0     0  0
 35 36  1  0     0  0
M  END
> <standard_type>
pIC50

> <# Confs.>
25

> <canonical_smiles>
O=C1C2=C(C(C(CCCCCCCCCCCCCCCCC)=O)=NN2)C(N1C3=CC(F)=CC=C3)=O

> <standard_relation>
=

> <predicted_activity_value>
5.440093374963888

> <actual_activity_value>
5.8326826652518236

> <Compound>
25

> <publication_ID>
nan

> <standard_units>
nM

> hash
4545269703029799314

$$$$
25_
XXILIB    08252103423D 0   0.00000     0.00000

 36 38  0     1  0            999 V2000
  -15.0028   -1.2617    7.8737 F   0  0  0  0  0  1           0  0  0
  -10.3901   -0.0565    8.5852 O   0  0  0  0  0  2           0  0  0
  -10.0032   -0.0204    3.9002 O   0  0  0  0  0  2           0  0  0
   -6.9384   -0.0000    3.1127 O   0  0  0  0  0  2           0  0  0
   -7.3651   -0.0289    7.5724 N   0  0  0  0  0  3           0  0  0
   -6.4030   -0.0124    6.6185 N   0  0  0  0  0  3           0  0  0
  -10.6496   -0.0445    6.2064 N   0  0  2  0  0  3           0  0  0
  -14.2548   -0.6666    6.9341 C   0  0  0  0  0  4           0  0  0
   -8.6005   -0.0355    7.0393 C   0  0  0  0  0  4           0  0  0
   -7.0792   -0.0127    5.4470 C   0  0  0  0  0  4           0  0  0
  -12.0659   -0.0508    6.0887 C   0  0  0  0  0  4           0  0  0
   -8.4590   -0.0251    5.6867 C   0  0  0  0  0  4           0  0  0
  -12.8661   -0.6630    7.0662 C   0  0  0  0  0  4           0  0  0
  -14.8764   -0.0683    5.8453 C   0  0  0  0  0  4           0  0  0
  -12.7005    0.5535    4.9890 C   0  0  0  0  0  4           0  0  0
  -14.0947    0.5435    4.8704 C   0  0  0  0  0  4           0  0  0
   -9.9662   -0.0480    7.4408 C   0  0  0  0  0  4           0  0  0
   -9.7710   -0.0299    5.0979 C   0  0  0  0  0  4           0  0  0
   -6.3442   -0.0000    4.1907 C   0  0  0  0  0  4           0  0  0
   -4.8306    0.0000    4.2191 C   0  0  0  0  0  4           0  0  0
   -4.2380   -0.0000    2.8129 C   0  0  0  0  0  4           0  0  0
   -2.7117    0.0000    2.8129 C   0  0  0  0  0  4           0  0  0
   -2.1190   -0.0000    1.4064 C   0  0  0  0  0  4           0  0  0
   -0.5927    0.0000    1.4064 C   0  0  0  0  0  4           0  0  0
    0.0000   -0.0000    0.0000 C   0  0  0  0  0  4           0  0  0
    1.5260    0.0000   -0.0000 C   0  0  0  0  0  4           0  0  0
    2.1188   -1.2180    0.7032 C   0  0  0  0  0  4           0  0  0
    3.6450   -1.2180    0.7032 C   0  0  0  0  0  4           0  0  0
    4.2378   -2.4360    1.4064 C   0  0  0  0  0  4           0  0  0
    5.7640   -2.4360    1.4064 C   0  0  0  0  0  4           0  0  0
    6.3567   -3.6540    2.1097 C   0  0  0  0  0  4           0  0  0
    7.8830   -3.6540    2.1097 C   0  0  0  0  0  4           0  0  0
    8.4757   -4.8721    2.8129 C   0  0  0  0  0  4           0  0  0
   10.0019   -4.8721    2.8129 C   0  0  0  0  0  4           0  0  0
   10.5947   -6.0901    3.5161 C   0  0  0  0  0  4           0  0  0
   12.1162   -6.0890    3.5155 C   0  0  0  0  0  4           0  0  0
  1  8  1  0     0  0
  2 17  2  0     0  0
  3 18  2  0     0  0
  4 19  2  0     0  0
  5  6  1  0     0  0
  5  9  1  0     0  0
  6 10  2  0     0  0
  7 11  1  0     0  0
  7 17  1  0     0  0
  7 18  1  0     0  0
  8 13  1  0     0  0
  8 14  2  0     0  0
  9 12  2  0     0  0
  9 17  1  0     0  0
 10 12  1  0     0  0
 10 19  1  0     0  0
 11 13  2  0     0  0
 11 15  1  0     0  0
 12 18  1  0     0  0
 14 16  1  0     0  0
 15 16  2  0     0  0
 19 20  1  0     0  0
 20 21  1  0     0  0
 21 22  1  0     0  0
 22 23  1  0     0  0
 23 24  1  0     0  0
 24 25  1  0     0  0
 25 26  1  0     0  0
 26 27  1  0     0  0
 27 28  1  0     0  0
 28 29  1  0     0  0
 29 30  1  0     0  0
 30 31  1  0     0  0
 31 32  1  0     0  0
 32 33  1  0     0  0
 33 34  1  0     0  0
 34 35  1  0     0  0
 35 36  1  0     0  0
M  END
> <standard_type>
pIC50

> <# Confs.>
25

> <canonical_smiles>
O=C1C2=C(C(C(CCCCCCCCCCCCCCCCC)=O)=NN2)C(N1C3=CC(F)=CC=C3)=O

> <standard_relation>
=

> <predicted_activity_value>
5.440093374963888

> <actual_activity_value>
5.8326826652518236

> <Compound>
25

> <publication_ID>
nan

> <standard_units>
nM

> hash
4545269703029799314

$$$$
25_
XXILIB    08252103423D 0   0.00000     0.00000

 36 38  0     1  0            999 V2000
  -15.0028   -1.2617    7.8737 F   0  0  0  0  0  1           0  0  0
  -10.3901   -0.0565    8.5852 O   0  0  0  0  0  2           0  0  0
  -10.0032   -0.0204    3.9002 O   0  0  0  0  0  2           0  0  0
   -6.9384   -0.0000    3.1127 O   0  0  0  0  0  2           0  0  0
   -7.3651   -0.0289    7.5724 N   0  0  0  0  0  3           0  0  0
   -6.4030   -0.0124    6.6185 N   0  0  0  0  0  3           0  0  0
  -10.6496   -0.0445    6.2064 N   0  0  2  0  0  3           0  0  0
  -14.2548   -0.6666    6.9341 C   0  0  0  0  0  4           0  0  0
   -8.6005   -0.0355    7.0393 C   0  0  0  0  0  4           0  0  0
   -7.0792   -0.0127    5.4470 C   0  0  0  0  0  4           0  0  0
  -12.0659   -0.0508    6.0887 C   0  0  0  0  0  4           0  0  0
   -8.4590   -0.0251    5.6867 C   0  0  0  0  0  4           0  0  0
  -12.8661   -0.6630    7.0662 C   0  0  0  0  0  4           0  0  0
  -14.8764   -0.0683    5.8453 C   0  0  0  0  0  4           0  0  0
  -12.7005    0.5535    4.9890 C   0  0  0  0  0  4           0  0  0
  -14.0947    0.5435    4.8704 C   0  0  0  0  0  4           0  0  0
   -9.9662   -0.0480    7.4408 C   0  0  0  0  0  4           0  0  0
   -9.7710   -0.0299    5.0979 C   0  0  0  0  0  4           0  0  0
   -6.3442   -0.0000    4.1907 C   0  0  0  0  0  4           0  0  0
   -4.8306    0.0000    4.2191 C   0  0  0  0  0  4           0  0  0
   -4.2380   -0.0000    2.8129 C   0  0  0  0  0  4           0  0  0
   -2.7117    0.0000    2.8129 C   0  0  0  0  0  4           0  0  0
   -2.1190   -0.0000    1.4064 C   0  0  0  0  0  4           0  0  0
   -0.5927    0.0000    1.4064 C   0  0  0  0  0  4           0  0  0
    0.0000   -0.0000    0.0000 C   0  0  0  0  0  4           0  0  0
    1.5260    0.0000    0.0000 C   0  0  0  0  0  4           0  0  0
    2.1188    0.0000   -1.4064 C   0  0  0  0  0  4           0  0  0
    3.6450   -0.0000   -1.4064 C   0  0  0  0  0  4           0  0  0
    4.2378   -0.0000   -2.8129 C   0  0  0  0  0  4           0  0  0
    5.7640   -0.0000   -2.8129 C   0  0  0  0  0  4           0  0  0
    6.3567   -1.2180   -2.1097 C   0  0  0  0  0  4           0  0  0
    7.8830   -1.2180   -2.1097 C   0  0  0  0  0  4           0  0  0
    8.4757   -2.4360   -1.4064 C   0  0  0  0  0  4           0  0  0
   10.0019   -2.4360   -1.4064 C   0  0  0  0  0  4           0  0  0
   10.5947   -3.6540   -0.7032 C   0  0  0  0  0  4           0  0  0
   12.1162   -3.6530   -0.7039 C   0  0  0  0  0  4           0  0  0
  1  8  1  0     0  0
  2 17  2  0     0  0
  3 18  2  0     0  0
  4 19  2  0     0  0
  5  6  1  0     0  0
  5  9  1  0     0  0
  6 10  2  0     0  0
  7 11  1  0     0  0
  7 17  1  0     0  0
  7 18  1  0     0  0
  8 13  1  0     0  0
  8 14  2  0     0  0
  9 12  2  0     0  0
  9 17  1  0     0  0
 10 12  1  0     0  0
 10 19  1  0     0  0
 11 13  2  0     0  0
 11 15  1  0     0  0
 12 18  1  0     0  0
 14 16  1  0     0  0
 15 16  2  0     0  0
 19 20  1  0     0  0
 20 21  1  0     0  0
 21 22  1  0     0  0
 22 23  1  0     0  0
 23 24  1  0     0  0
 24 25  1  0     0  0
 25 26  1  0     0  0
 26 27  1  0     0  0
 27 28  1  0     0  0
 28 29  1  0     0  0
 29 30  1  0     0  0
 30 31  1  0     0  0
 31 32  1  0     0  0
 32 33  1  0     0  0
 33 34  1  0     0  0
 34 35  1  0     0  0
 35 36  1  0     0  0
M  END
> <standard_type>
pIC50

> <# Confs.>
25

> <canonical_smiles>
O=C1C2=C(C(C(CCCCCCCCCCCCCCCCC)=O)=NN2)C(N1C3=CC(F)=CC=C3)=O

> <standard_relation>
=

> <predicted_activity_value>
5.440093374963888

> <actual_activity_value>
5.8326826652518236

> <Compound>
25

> <publication_ID>
nan

> <standard_units>
nM

> hash
4545269703029799314

$$$$
24_
XXILIB    08252103423D 0   0.00000     0.00000

 36 38  0     1  0            999 V2000
  -15.3176   -1.4942    8.2729 Br  0  0  0  0  0  1           0  0  0
  -10.3901   -0.0565    8.5852 O   0  0  0  0  0  2           0  0  0
  -10.0032   -0.0204    3.9002 O   0  0  0  0  0  2           0  0  0
   -6.9384   -0.0000    3.1127 O   0  0  0  0  0  2           0  0  0
   -7.3651   -0.0289    7.5724 N   0  0  0  0  0  3           0  0  0
   -6.4030   -0.0124    6.6185 N   0  0  0  0  0  3           0  0  0
  -10.6496   -0.0445    6.2064 N   0  0  2  0  0  3           0  0  0
  -14.2587   -0.6650    6.9414 C   0  0  0  0  0  4           0  0  0
   -8.6005   -0.0355    7.0393 C   0  0  0  0  0  4           0  0  0
   -7.0792   -0.0127    5.4470 C   0  0  0  0  0  4           0  0  0
  -12.0661   -0.0508    6.0887 C   0  0  0  0  0  4           0  0  0
   -8.4590   -0.0251    5.6867 C   0  0  0  0  0  4           0  0  0
  -12.8666   -0.6637    7.0674 C   0  0  0  0  0  4           0  0  0
  -14.8756   -0.0618    5.8485 C   0  0  0  0  0  4           0  0  0
  -12.6988    0.5543    4.9901 C   0  0  0  0  0  4           0  0  0
  -14.0915    0.5477    4.8734 C   0  0  0  0  0  4           0  0  0
   -9.9662   -0.0480    7.4408 C   0  0  0  0  0  4           0  0  0
   -9.7710   -0.0299    5.0979 C   0  0  0  0  0  4           0  0  0
   -6.3442   -0.0000    4.1907 C   0  0  0  0  0  4           0  0  0
   -4.8306    0.0000    4.2191 C   0  0  0  0  0  4           0  0  0
   -4.2380   -0.0000    2.8129 C   0  0  0  0  0  4           0  0  0
   -2.7117    0.0000    2.8129 C   0  0  0  0  0  4           0  0  0
   -2.1190   -0.0000    1.4064 C   0  0  0  0  0  4           0  0  0
   -0.5927    0.0000    1.4064 C   0  0  0  0  0  4           0  0  0
    0.0000   -0.0000    0.0000 C   0  0  0  0  0  4           0  0  0
    1.5260    0.0000    0.0000 C   0  0  0  0  0  4           0  0  0
    2.1188    0.0000   -1.4064 C   0  0  0  0  0  4           0  0  0
    3.6450    0.0000   -1.4064 C   0  0  0  0  0  4           0  0  0
    4.2378    0.0000   -2.8129 C   0  0  0  0  0  4           0  0  0
    5.7640    0.0000   -2.8129 C   0  0  0  0  0  4           0  0  0
    6.3567    0.0000   -4.2193 C   0  0  0  0  0  4           0  0  0
    7.8830    0.0000   -4.2193 C   0  0  0  0  0  4           0  0  0
    8.4757    0.0000   -5.6258 C   0  0  0  0  0  4           0  0  0
   10.0019    0.0000   -5.6258 C   0  0  0  0  0  4           0  0  0
   10.5947    0.0000   -7.0322 C   0  0  0  0  0  4           0  0  0
   12.1162    0.0000   -7.0310 C   0  0  0  0  0  4           0  0  0
  1  8  1  0     0  0
  2 17  2  0     0  0
  3 18  2  0     0  0
  4 19  2  0     0  0
  5  6  1  0     0  0
  5  9  1  0     0  0
  6 10  2  0     0  0
  7 11  1  0     0  0
  7 17  1  0     0  0
  7 18  1  0     0  0
  8 13  1  0     0  0
  8 14  2  0     0  0
  9 12  2  0     0  0
  9 17  1  0     0  0
 10 12  1  0     0  0
 10 19  1  0     0  0
 11 13  2  0     0  0
 11 15  1  0     0  0
 12 18  1  0     0  0
 14 16  1  0     0  0
 15 16  2  0     0  0
 19 20  1  0     0  0
 20 21  1  0     0  0
 21 22  1  0     0  0
 22 23  1  0     0  0
 23 24  1  0     0  0
 24 25  1  0     0  0
 25 26  1  0     0  0
 26 27  1  0     0  0
 27 28  1  0     0  0
 28 29  1  0     0  0
 29 30  1  0     0  0
 30 31  1  0     0  0
 31 32  1  0     0  0
 32 33  1  0     0  0
 33 34  1  0     0  0
 34 35  1  0     0  0
 35 36  1  0     0  0
M  END
> <standard_type>
pIC50

> <# Confs.>
25

> <canonical_smiles>
O=C1C2=C(C(C(CCCCCCCCCCCCCCCCC)=O)=NN2)C(N1C3=CC(Br)=CC=C3)=O

> <standard_relation>
=

> <predicted_activity_value>
6.090443970758825

> <actual_activity_value>
5.995678626217358

> <Compound>
24

> <publication_ID>
nan

> <standard_units>
nM

> hash
880138860404581231

$$$$
24_
XXILIB    08252103423D 0   0.00000     0.00000

 36 38  0     1  0            999 V2000
  -15.3314    1.3389    8.2871 Br  0  0  0  0  0  1           0  0  0
  -10.3901   -0.0565    8.5852 O   0  0  0  0  0  2           0  0  0
  -10.0032   -0.0204    3.9002 O   0  0  0  0  0  2           0  0  0
   -6.9384   -0.0000    3.1127 O   0  0  0  0  0  2           0  0  0
   -7.3651   -0.0289    7.5724 N   0  0  0  0  0  3           0  0  0
   -6.4030   -0.0124    6.6185 N   0  0  0  0  0  3           0  0  0
  -10.6496   -0.0445    6.2064 N   0  0  2  0  0  3           0  0  0
  -14.2647    0.5306    6.9490 C   0  0  0  0  0  4           0  0  0
   -8.6005   -0.0355    7.0393 C   0  0  0  0  0  4           0  0  0
   -7.0792   -0.0127    5.4470 C   0  0  0  0  0  4           0  0  0
  -12.0661   -0.0508    6.0887 C   0  0  0  0  0  4           0  0  0
   -8.4590   -0.0251    5.6867 C   0  0  0  0  0  4           0  0  0
  -12.8725    0.5433    7.0742 C   0  0  0  0  0  4           0  0  0
  -14.8757   -0.0683    5.8506 C   0  0  0  0  0  4           0  0  0
  -12.6930   -0.6526    4.9849 C   0  0  0  0  0  4           0  0  0
  -14.0857   -0.6598    4.8691 C   0  0  0  0  0  4           0  0  0
   -9.9662   -0.0480    7.4408 C   0  0  0  0  0  4           0  0  0
   -9.7710   -0.0299    5.0979 C   0  0  0  0  0  4           0  0  0
   -6.3442   -0.0000    4.1907 C   0  0  0  0  0  4           0  0  0
   -4.8306    0.0000    4.2191 C   0  0  0  0  0  4           0  0  0
   -4.2380   -0.0000    2.8129 C   0  0  0  0  0  4           0  0  0
   -2.7117    0.0000    2.8129 C   0  0  0  0  0  4           0  0  0
   -2.1190   -0.0000    1.4064 C   0  0  0  0  0  4           0  0  0
   -0.5927    0.0000    1.4064 C   0  0  0  0  0  4           0  0  0
    0.0000   -0.0000    0.0000 C   0  0  0  0  0  4           0  0  0
    1.5260    0.0000    0.0000 C   0  0  0  0  0  4           0  0  0
    2.1188    0.0000   -1.4064 C   0  0  0  0  0  4           0  0  0
    3.6450    0.0000   -1.4064 C   0  0  0  0  0  4           0  0  0
    4.2378    0.0000   -2.8129 C   0  0  0  0  0  4           0  0  0
    5.7640    0.0000   -2.8129 C   0  0  0  0  0  4           0  0  0
    6.3567    0.0000   -4.2193 C   0  0  0  0  0  4           0  0  0
    7.8830    0.0000   -4.2193 C   0  0  0  0  0  4           0  0  0
    8.4757    0.0000   -5.6258 C   0  0  0  0  0  4           0  0  0
   10.0019    0.0000   -5.6258 C   0  0  0  0  0  4           0  0  0
   10.5947    0.0000   -7.0322 C   0  0  0  0  0  4           0  0  0
   12.1162    0.0000   -7.0310 C   0  0  0  0  0  4           0  0  0
  1  8  1  0     0  0
  2 17  2  0     0  0
  3 18  2  0     0  0
  4 19  2  0     0  0
  5  6  1  0     0  0
  5  9  1  0     0  0
  6 10  2  0     0  0
  7 11  1  0     0  0
  7 17  1  0     0  0
  7 18  1  0     0  0
  8 13  1  0     0  0
  8 14  2  0     0  0
  9 12  2  0     0  0
  9 17  1  0     0  0
 10 12  1  0     0  0
 10 19  1  0     0  0
 11 13  2  0     0  0
 11 15  1  0     0  0
 12 18  1  0     0  0
 14 16  1  0     0  0
 15 16  2  0     0  0
 19 20  1  0     0  0
 20 21  1  0     0  0
 21 22  1  0     0  0
 22 23  1  0     0  0
 23 24  1  0     0  0
 24 25  1  0     0  0
 25 26  1  0     0  0
 26 27  1  0     0  0
 27 28  1  0     0  0
 28 29  1  0     0  0
 29 30  1  0     0  0
 30 31  1  0     0  0
 31 32  1  0     0  0
 32 33  1  0     0  0
 33 34  1  0     0  0
 34 35  1  0     0  0
 35 36  1  0     0  0
M  END
> <standard_type>
pIC50

> <# Confs.>
25

> <canonical_smiles>
O=C1C2=C(C(C(CCCCCCCCCCCCCCCCC)=O)=NN2)C(N1C3=CC(Br)=CC=C3)=O

> <standard_relation>
=

> <predicted_activity_value>
6.090443970758825

> <actual_activity_value>
5.995678626217358

> <Compound>
24

> <publication_ID>
nan

> <standard_units>
nM

> hash
880138860404581231

$$$$
24_
XXILIB    08252103423D 0   0.00000     0.00000

 36 38  0     1  0            999 V2000
  -14.9251    1.3654    3.3967 Br  0  0  0  0  0  1           0  0  0
  -10.3901   -0.0565    8.5852 O   0  0  0  0  0  2           0  0  0
  -10.0032   -0.0204    3.9002 O   0  0  0  0  0  2           0  0  0
   -6.9384   -0.0000    3.1127 O   0  0  0  0  0  2           0  0  0
   -7.3651   -0.0289    7.5724 N   0  0  0  0  0  3           0  0  0
   -6.4030   -0.0124    6.6185 N   0  0  0  0  0  3           0  0  0
  -10.6496   -0.0445    6.2064 N   0  0  2  0  0  3           0  0  0
  -14.0933    0.5446    4.8853 C   0  0  0  0  0  4           0  0  0
   -8.6005   -0.0355    7.0393 C   0  0  0  0  0  4           0  0  0
   -7.0792   -0.0127    5.4470 C   0  0  0  0  0  4           0  0  0
  -12.0661   -0.0508    6.0887 C   0  0  0  0  0  4           0  0  0
   -8.4590   -0.0251    5.6867 C   0  0  0  0  0  4           0  0  0
  -12.6994    0.5557    4.9908 C   0  0  0  0  0  4           0  0  0
  -14.8767   -0.0648    5.8618 C   0  0  0  0  0  4           0  0  0
  -12.8660   -0.6623    7.0682 C   0  0  0  0  0  4           0  0  0
  -14.2589   -0.6681    6.9534 C   0  0  0  0  0  4           0  0  0
   -9.9662   -0.0480    7.4408 C   0  0  0  0  0  4           0  0  0
   -9.7710   -0.0299    5.0979 C   0  0  0  0  0  4           0  0  0
   -6.3442   -0.0000    4.1907 C   0  0  0  0  0  4           0  0  0
   -4.8306    0.0000    4.2191 C   0  0  0  0  0  4           0  0  0
   -4.2380   -0.0000    2.8129 C   0  0  0  0  0  4           0  0  0
   -2.7117    0.0000    2.8129 C   0  0  0  0  0  4           0  0  0
   -2.1190   -0.0000    1.4064 C   0  0  0  0  0  4           0  0  0
   -0.5927    0.0000    1.4064 C   0  0  0  0  0  4           0  0  0
    0.0000   -0.0000    0.0000 C   0  0  0  0  0  4           0  0  0
    1.5260    0.0000    0.0000 C   0  0  0  0  0  4           0  0  0
    2.1188    0.0000   -1.4064 C   0  0  0  0  0  4           0  0  0
    3.6450    0.0000   -1.4064 C   0  0  0  0  0  4           0  0  0
    4.2378    0.0000   -2.8129 C   0  0  0  0  0  4           0  0  0
    5.7640    0.0000   -2.8129 C   0  0  0  0  0  4           0  0  0
    6.3567    0.0000   -4.2193 C   0  0  0  0  0  4           0  0  0
    7.8830    0.0000   -4.2193 C   0  0  0  0  0  4           0  0  0
    8.4757    0.0000   -5.6258 C   0  0  0  0  0  4           0  0  0
   10.0019    0.0000   -5.6258 C   0  0  0  0  0  4           0  0  0
   10.5947    0.0000   -7.0322 C   0  0  0  0  0  4           0  0  0
   12.1162    0.0000   -7.0310 C   0  0  0  0  0  4           0  0  0
  1  8  1  0     0  0
  2 17  2  0     0  0
  3 18  2  0     0  0
  4 19  2  0     0  0
  5  6  1  0     0  0
  5  9  1  0     0  0
  6 10  2  0     0  0
  7 11  1  0     0  0
  7 17  1  0     0  0
  7 18  1  0     0  0
  8 13  1  0     0  0
  8 14  2  0     0  0
  9 12  2  0     0  0
  9 17  1  0     0  0
 10 12  1  0     0  0
 10 19  1  0     0  0
 11 13  2  0     0  0
 11 15  1  0     0  0
 12 18  1  0     0  0
 14 16  1  0     0  0
 15 16  2  0     0  0
 19 20  1  0     0  0
 20 21  1  0     0  0
 21 22  1  0     0  0
 22 23  1  0     0  0
 23 24  1  0     0  0
 24 25  1  0     0  0
 25 26  1  0     0  0
 26 27  1  0     0  0
 27 28  1  0     0  0
 28 29  1  0     0  0
 29 30  1  0     0  0
 30 31  1  0     0  0
 31 32  1  0     0  0
 32 33  1  0     0  0
 33 34  1  0     0  0
 34 35  1  0     0  0
 35 36  1  0     0  0
M  END
> <standard_type>
pIC50

> <# Confs.>
25

> <canonical_smiles>
O=C1C2=C(C(C(CCCCCCCCCCCCCCCCC)=O)=NN2)C(N1C3=CC(Br)=CC=C3)=O

> <standard_relation>
=

> <predicted_activity_value>
6.090443970758825

> <actual_activity_value>
5.995678626217358

> <Compound>
24

> <publication_ID>
nan

> <standard_units>
nM

> hash
880138860404581231

$$$$
24_
XXILIB    08252103423D 0   0.00000     0.00000

 36 38  0     1  0            999 V2000
  -14.9113   -1.4678    3.3825 Br  0  0  0  0  0  1           0  0  0
  -10.3901   -0.0565    8.5852 O   0  0  0  0  0  2           0  0  0
  -10.0032   -0.0204    3.9002 O   0  0  0  0  0  2           0  0  0
   -6.9384   -0.0000    3.1127 O   0  0  0  0  0  2           0  0  0
   -7.3651   -0.0289    7.5724 N   0  0  0  0  0  3           0  0  0
   -6.4030   -0.0124    6.6185 N   0  0  0  0  0  3           0  0  0
  -10.6496   -0.0445    6.2064 N   0  0  2  0  0  3           0  0  0
  -14.0873   -0.6510    4.8777 C   0  0  0  0  0  4           0  0  0
   -8.6005   -0.0355    7.0393 C   0  0  0  0  0  4           0  0  0
   -7.0792   -0.0127    5.4470 C   0  0  0  0  0  4           0  0  0
  -12.0661   -0.0508    6.0887 C   0  0  0  0  0  4           0  0  0
   -8.4590   -0.0251    5.6867 C   0  0  0  0  0  4           0  0  0
  -12.6935   -0.6512    4.9840 C   0  0  0  0  0  4           0  0  0
  -14.8766   -0.0583    5.8597 C   0  0  0  0  0  4           0  0  0
  -12.8718    0.5446    7.0734 C   0  0  0  0  0  4           0  0  0
  -14.2646    0.5395    6.9577 C   0  0  0  0  0  4           0  0  0
   -9.9662   -0.0480    7.4408 C   0  0  0  0  0  4           0  0  0
   -9.7710   -0.0299    5.0979 C   0  0  0  0  0  4           0  0  0
   -6.3442   -0.0000    4.1907 C   0  0  0  0  0  4           0  0  0
   -4.8306    0.0000    4.2191 C   0  0  0  0  0  4           0  0  0
   -4.2380   -0.0000    2.8129 C   0  0  0  0  0  4           0  0  0
   -2.7117    0.0000    2.8129 C   0  0  0  0  0  4           0  0  0
   -2.1190   -0.0000    1.4064 C   0  0  0  0  0  4           0  0  0
   -0.5927    0.0000    1.4064 C   0  0  0  0  0  4           0  0  0
    0.0000   -0.0000    0.0000 C   0  0  0  0  0  4           0  0  0
    1.5260    0.0000    0.0000 C   0  0  0  0  0  4           0  0  0
    2.1188    0.0000   -1.4064 C   0  0  0  0  0  4           0  0  0
    3.6450    0.0000   -1.4064 C   0  0  0  0  0  4           0  0  0
    4.2378    0.0000   -2.8129 C   0  0  0  0  0  4           0  0  0
    5.7640    0.0000   -2.8129 C   0  0  0  0  0  4           0  0  0
    6.3567    0.0000   -4.2193 C   0  0  0  0  0  4           0  0  0
    7.8830    0.0000   -4.2193 C   0  0  0  0  0  4           0  0  0
    8.4757    0.0000   -5.6258 C   0  0  0  0  0  4           0  0  0
   10.0019    0.0000   -5.6258 C   0  0  0  0  0  4           0  0  0
   10.5947    0.0000   -7.0322 C   0  0  0  0  0  4           0  0  0
   12.1162    0.0000   -7.0310 C   0  0  0  0  0  4           0  0  0
  1  8  1  0     0  0
  2 17  2  0     0  0
  3 18  2  0     0  0
  4 19  2  0     0  0
  5  6  1  0     0  0
  5  9  1  0     0  0
  6 10  2  0     0  0
  7 11  1  0     0  0
  7 17  1  0     0  0
  7 18  1  0     0  0
  8 13  1  0     0  0
  8 14  2  0     0  0
  9 12  2  0     0  0
  9 17  1  0     0  0
 10 12  1  0     0  0
 10 19  1  0     0  0
 11 13  2  0     0  0
 11 15  1  0     0  0
 12 18  1  0     0  0
 14 16  1  0     0  0
 15 16  2  0     0  0
 19 20  1  0     0  0
 20 21  1  0     0  0
 21 22  1  0     0  0
 22 23  1  0     0  0
 23 24  1  0     0  0
 24 25  1  0     0  0
 25 26  1  0     0  0
 26 27  1  0     0  0
 27 28  1  0     0  0
 28 29  1  0     0  0
 29 30  1  0     0  0
 30 31  1  0     0  0
 31 32  1  0     0  0
 32 33  1  0     0  0
 33 34  1  0     0  0
 34 35  1  0     0  0
 35 36  1  0     0  0
M  END
> <standard_type>
pIC50

> <# Confs.>
25

> <canonical_smiles>
O=C1C2=C(C(C(CCCCCCCCCCCCCCCCC)=O)=NN2)C(N1C3=CC(Br)=CC=C3)=O

> <standard_relation>
=

> <predicted_activity_value>
6.090443970758825

> <actual_activity_value>
5.995678626217358

> <Compound>
24

> <publication_ID>
nan

> <standard_units>
nM

> hash
880138860404581231

$$$$
24_
XXILIB    08252103423D 0   0.00000     0.00000

 36 38  0     1  0            999 V2000
  -15.2095   -4.2503    2.5294 Br  0  0  0  0  0  1           0  0  0
  -10.3050   -4.4699    4.0597 O   0  0  0  0  0  2           0  0  0
  -10.0069    0.2216    4.1014 O   0  0  0  0  0  2           0  0  0
   -6.9585    1.0666    4.1791 O   0  0  0  0  0  2           0  0  0
   -7.3006   -3.4003    4.1438 N   0  0  0  0  0  3           0  0  0
   -6.3570   -2.4285    4.1780 N   0  0  0  0  0  3           0  0  0
  -10.6094   -2.0963    4.0659 N   0  0  2  0  0  3           0  0  0
  -14.1917   -2.8991    3.3779 C   0  0  0  0  0  4           0  0  0
   -8.5455   -2.8906    4.1137 C   0  0  0  0  0  4           0  0  0
   -7.0551   -1.2699    4.1646 C   0  0  0  0  0  4           0  0  0
  -12.0274   -2.0053    4.0329 C   0  0  0  0  0  4           0  0  0
   -8.4296   -1.5356    4.1263 C   0  0  0  0  0  4           0  0  0
  -12.7977   -2.9990    3.4054 C   0  0  0  0  0  4           0  0  0
  -14.8402   -1.8181    3.9690 C   0  0  0  0  0  4           0  0  0
  -12.6919   -0.9188    4.6257 C   0  0  0  0  0  4           0  0  0
  -14.0862   -0.8283    4.5928 C   0  0  0  0  0  4           0  0  0
   -9.9029   -3.3177    4.0757 C   0  0  0  0  0  4           0  0  0
   -9.7521   -0.9715    4.0967 C   0  0  0  0  0  4           0  0  0
   -6.3442   -0.0000    4.1907 C   0  0  0  0  0  4           0  0  0
   -4.8306    0.0000    4.2191 C   0  0  0  0  0  4           0  0  0
   -4.2380   -0.0000    2.8129 C   0  0  0  0  0  4           0  0  0
   -2.7117    0.0000    2.8129 C   0  0  0  0  0  4           0  0  0
   -2.1190   -0.0000    1.4064 C   0  0  0  0  0  4           0  0  0
   -0.5927    0.0000    1.4064 C   0  0  0  0  0  4           0  0  0
    0.0000   -0.0000    0.0000 C   0  0  0  0  0  4           0  0  0
    1.5260    0.0000    0.0000 C   0  0  0  0  0  4           0  0  0
    2.1188    0.0000   -1.4064 C   0  0  0  0  0  4           0  0  0
    3.6450    0.0000   -1.4064 C   0  0  0  0  0  4           0  0  0
    4.2378    0.0000   -2.8129 C   0  0  0  0  0  4           0  0  0
    5.7640    0.0000   -2.8129 C   0  0  0  0  0  4           0  0  0
    6.3567    0.0000   -4.2193 C   0  0  0  0  0  4           0  0  0
    7.8830    0.0000   -4.2193 C   0  0  0  0  0  4           0  0  0
    8.4757    0.0000   -5.6258 C   0  0  0  0  0  4           0  0  0
   10.0019    0.0000   -5.6258 C   0  0  0  0  0  4           0  0  0
   10.5947    0.0000   -7.0322 C   0  0  0  0  0  4           0  0  0
   12.1162    0.0000   -7.0310 C   0  0  0  0  0  4           0  0  0
  1  8  1  0     0  0
  2 17  2  0     0  0
  3 18  2  0     0  0
  4 19  2  0     0  0
  5  6  1  0     0  0
  5  9  1  0     0  0
  6 10  2  0     0  0
  7 11  1  0     0  0
  7 17  1  0     0  0
  7 18  1  0     0  0
  8 13  1  0     0  0
  8 14  2  0     0  0
  9 12  2  0     0  0
  9 17  1  0     0  0
 10 12  1  0     0  0
 10 19  1  0     0  0
 11 13  2  0     0  0
 11 15  1  0     0  0
 12 18  1  0     0  0
 14 16  1  0     0  0
 15 16  2  0     0  0
 19 20  1  0     0  0
 20 21  1  0     0  0
 21 22  1  0     0  0
 22 23  1  0     0  0
 23 24  1  0     0  0
 24 25  1  0     0  0
 25 26  1  0     0  0
 26 27  1  0     0  0
 27 28  1  0     0  0
 28 29  1  0     0  0
 29 30  1  0     0  0
 30 31  1  0     0  0
 31 32  1  0     0  0
 32 33  1  0     0  0
 33 34  1  0     0  0
 34 35  1  0     0  0
 35 36  1  0     0  0
M  END
> <standard_type>
pIC50

> <# Confs.>
25

> <canonical_smiles>
O=C1C2=C(C(C(CCCCCCCCCCCCCCCCC)=O)=NN2)C(N1C3=CC(Br)=CC=C3)=O

> <standard_relation>
=

> <predicted_activity_value>
6.090443970758825

> <actual_activity_value>
5.995678626217358

> <Compound>
24

> <publication_ID>
nan

> <standard_units>
nM

> hash
880138860404581231

$$$$
24_
XXILIB    08252103423D 0   0.00000     0.00000

 36 38  0     1  0            999 V2000
  -15.2657    4.2503    5.5173 Br  0  0  0  0  0  1           0  0  0
  -10.3071    4.4699    4.1726 O   0  0  0  0  0  2           0  0  0
  -10.0077   -0.2216    4.1421 O   0  0  0  0  0  2           0  0  0
   -6.9585   -1.0666    4.1791 O   0  0  0  0  0  2           0  0  0
   -7.3017    3.4003    4.2016 N   0  0  0  0  0  3           0  0  0
   -6.3575    2.4285    4.2028 N   0  0  0  0  0  3           0  0  0
  -10.6110    2.0963    4.1549 N   0  0  2  0  0  3           0  0  0
  -14.2167    2.8991    4.7076 C   0  0  0  0  0  4           0  0  0
   -8.5468    2.8906    4.1848 C   0  0  0  0  0  4           0  0  0
   -7.0555    1.2699    4.1899 C   0  0  0  0  0  4           0  0  0
  -12.0293    2.0053    4.1345 C   0  0  0  0  0  4           0  0  0
   -8.4306    1.5356    4.1766 C   0  0  0  0  0  4           0  0  0
  -12.8226    2.9990    4.7326 C   0  0  0  0  0  4           0  0  0
  -14.8426    1.8181    4.0926 C   0  0  0  0  0  4           0  0  0
  -12.6711    0.9188    3.5172 C   0  0  0  0  0  4           0  0  0
  -14.0656    0.8283    3.4976 C   0  0  0  0  0  4           0  0  0
   -9.9047    3.3177    4.1717 C   0  0  0  0  0  4           0  0  0
   -9.7533    0.9715    4.1564 C   0  0  0  0  0  4           0  0  0
   -6.3442   -0.0000    4.1907 C   0  0  0  0  0  4           0  0  0
   -4.8306    0.0000    4.2191 C   0  0  0  0  0  4           0  0  0
   -4.2380   -0.0000    2.8129 C   0  0  0  0  0  4           0  0  0
   -2.7117    0.0000    2.8129 C   0  0  0  0  0  4           0  0  0
   -2.1190   -0.0000    1.4064 C   0  0  0  0  0  4           0  0  0
   -0.5927    0.0000    1.4064 C   0  0  0  0  0  4           0  0  0
    0.0000   -0.0000    0.0000 C   0  0  0  0  0  4           0  0  0
    1.5260    0.0000    0.0000 C   0  0  0  0  0  4           0  0  0
    2.1188    0.0000   -1.4064 C   0  0  0  0  0  4           0  0  0
    3.6450    0.0000   -1.4064 C   0  0  0  0  0  4           0  0  0
    4.2378    0.0000   -2.8129 C   0  0  0  0  0  4           0  0  0
    5.7640    0.0000   -2.8129 C   0  0  0  0  0  4           0  0  0
    6.3567    0.0000   -4.2193 C   0  0  0  0  0  4           0  0  0
    7.8830    0.0000   -4.2193 C   0  0  0  0  0  4           0  0  0
    8.4757    0.0000   -5.6258 C   0  0  0  0  0  4           0  0  0
   10.0019    0.0000   -5.6258 C   0  0  0  0  0  4           0  0  0
   10.5947    0.0000   -7.0322 C   0  0  0  0  0  4           0  0  0
   12.1162    0.0000   -7.0310 C   0  0  0  0  0  4           0  0  0
  1  8  1  0     0  0
  2 17  2  0     0  0
  3 18  2  0     0  0
  4 19  2  0     0  0
  5  6  1  0     0  0
  5  9  1  0     0  0
  6 10  2  0     0  0
  7 11  1  0     0  0
  7 17  1  0     0  0
  7 18  1  0     0  0
  8 13  1  0     0  0
  8 14  2  0     0  0
  9 12  2  0     0  0
  9 17  1  0     0  0
 10 12  1  0     0  0
 10 19  1  0     0  0
 11 13  2  0     0  0
 11 15  1  0     0  0
 12 18  1  0     0  0
 14 16  1  0     0  0
 15 16  2  0     0  0
 19 20  1  0     0  0
 20 21  1  0     0  0
 21 22  1  0     0  0
 22 23  1  0     0  0
 23 24  1  0     0  0
 24 25  1  0     0  0
 25 26  1  0     0  0
 26 27  1  0     0  0
 27 28  1  0     0  0
 28 29  1  0     0  0
 29 30  1  0     0  0
 30 31  1  0     0  0
 31 32  1  0     0  0
 32 33  1  0     0  0
 33 34  1  0     0  0
 34 35  1  0     0  0
 35 36  1  0     0  0
M  END
> <standard_type>
pIC50

> <# Confs.>
25

> <canonical_smiles>
O=C1C2=C(C(C(CCCCCCCCCCCCCCCCC)=O)=NN2)C(N1C3=CC(Br)=CC=C3)=O

> <standard_relation>
=

> <predicted_activity_value>
6.090443970758825

> <actual_activity_value>
5.995678626217358

> <Compound>
24

> <publication_ID>
nan

> <standard_units>
nM

> hash
880138860404581231

$$$$
24_
XXILIB    08252103423D 0   0.00000     0.00000

 36 38  0     1  0            999 V2000
  -15.2763   -4.2648    5.3618 Br  0  0  0  0  0  1           0  0  0
  -10.3050   -4.4699    4.0597 O   0  0  0  0  0  2           0  0  0
  -10.0069    0.2216    4.1014 O   0  0  0  0  0  2           0  0  0
   -6.9585    1.0666    4.1791 O   0  0  0  0  0  2           0  0  0
   -7.3006   -3.4003    4.1438 N   0  0  0  0  0  3           0  0  0
   -6.3570   -2.4285    4.1780 N   0  0  0  0  0  3           0  0  0
  -10.6094   -2.0963    4.0659 N   0  0  2  0  0  3           0  0  0
  -14.2200   -2.9068    4.5732 C   0  0  0  0  0  4           0  0  0
   -8.5455   -2.8906    4.1137 C   0  0  0  0  0  4           0  0  0
   -7.0551   -1.2699    4.1646 C   0  0  0  0  0  4           0  0  0
  -12.0274   -2.0053    4.0329 C   0  0  0  0  0  4           0  0  0
   -8.4296   -1.5356    4.1263 C   0  0  0  0  0  4           0  0  0
  -12.8262   -3.0058    4.6121 C   0  0  0  0  0  4           0  0  0
  -14.8402   -1.8201    3.9625 C   0  0  0  0  0  4           0  0  0
  -12.6635   -0.9136    3.4191 C   0  0  0  0  0  4           0  0  0
  -14.0578   -0.8239    3.3856 C   0  0  0  0  0  4           0  0  0
   -9.9029   -3.3177    4.0757 C   0  0  0  0  0  4           0  0  0
   -9.7521   -0.9715    4.0967 C   0  0  0  0  0  4           0  0  0
   -6.3442   -0.0000    4.1907 C   0  0  0  0  0  4           0  0  0
   -4.8306    0.0000    4.2191 C   0  0  0  0  0  4           0  0  0
   -4.2380   -0.0000    2.8129 C   0  0  0  0  0  4           0  0  0
   -2.7117    0.0000    2.8129 C   0  0  0  0  0  4           0  0  0
   -2.1190   -0.0000    1.4064 C   0  0  0  0  0  4           0  0  0
   -0.5927    0.0000    1.4064 C   0  0  0  0  0  4           0  0  0
    0.0000   -0.0000    0.0000 C   0  0  0  0  0  4           0  0  0
    1.5260    0.0000    0.0000 C   0  0  0  0  0  4           0  0  0
    2.1188    0.0000   -1.4064 C   0  0  0  0  0  4           0  0  0
    3.6450    0.0000   -1.4064 C   0  0  0  0  0  4           0  0  0
    4.2378    0.0000   -2.8129 C   0  0  0  0  0  4           0  0  0
    5.7640    0.0000   -2.8129 C   0  0  0  0  0  4           0  0  0
    6.3567    0.0000   -4.2193 C   0  0  0  0  0  4           0  0  0
    7.8830    0.0000   -4.2193 C   0  0  0  0  0  4           0  0  0
    8.4757    0.0000   -5.6258 C   0  0  0  0  0  4           0  0  0
   10.0019    0.0000   -5.6258 C   0  0  0  0  0  4           0  0  0
   10.5947    0.0000   -7.0322 C   0  0  0  0  0  4           0  0  0
   12.1162    0.0000   -7.0310 C   0  0  0  0  0  4           0  0  0
  1  8  1  0     0  0
  2 17  2  0     0  0
  3 18  2  0     0  0
  4 19  2  0     0  0
  5  6  1  0     0  0
  5  9  1  0     0  0
  6 10  2  0     0  0
  7 11  1  0     0  0
  7 17  1  0     0  0
  7 18  1  0     0  0
  8 13  1  0     0  0
  8 14  2  0     0  0
  9 12  2  0     0  0
  9 17  1  0     0  0
 10 12  1  0     0  0
 10 19  1  0     0  0
 11 13  2  0     0  0
 11 15  1  0     0  0
 12 18  1  0     0  0
 14 16  1  0     0  0
 15 16  2  0     0  0
 19 20  1  0     0  0
 20 21  1  0     0  0
 21 22  1  0     0  0
 22 23  1  0     0  0
 23 24  1  0     0  0
 24 25  1  0     0  0
 25 26  1  0     0  0
 26 27  1  0     0  0
 27 28  1  0     0  0
 28 29  1  0     0  0
 29 30  1  0     0  0
 30 31  1  0     0  0
 31 32  1  0     0  0
 32 33  1  0     0  0
 33 34  1  0     0  0
 34 35  1  0     0  0
 35 36  1  0     0  0
M  END
> <standard_type>
pIC50

> <# Confs.>
25

> <canonical_smiles>
O=C1C2=C(C(C(CCCCCCCCCCCCCCCCC)=O)=NN2)C(N1C3=CC(Br)=CC=C3)=O

> <standard_relation>
=

> <predicted_activity_value>
6.090443970758825

> <actual_activity_value>
5.995678626217358

> <Compound>
24

> <publication_ID>
nan

> <standard_units>
nM

> hash
880138860404581231

$$$$
24_
XXILIB    08252103423D 0   0.00000     0.00000

 36 38  0     1  0            999 V2000
  -15.2259    4.2648    2.6844 Br  0  0  0  0  0  1           0  0  0
  -10.3071    4.4699    4.1726 O   0  0  0  0  0  2           0  0  0
  -10.0077   -0.2216    4.1421 O   0  0  0  0  0  2           0  0  0
   -6.9585   -1.0666    4.1791 O   0  0  0  0  0  2           0  0  0
   -7.3017    3.4003    4.2016 N   0  0  0  0  0  3           0  0  0
   -6.3575    2.4285    4.2028 N   0  0  0  0  0  3           0  0  0
  -10.6110    2.0963    4.1549 N   0  0  2  0  0  3           0  0  0
  -14.2000    2.9068    3.5122 C   0  0  0  0  0  4           0  0  0
   -8.5468    2.8906    4.1848 C   0  0  0  0  0  4           0  0  0
   -7.0555    1.2699    4.1899 C   0  0  0  0  0  4           0  0  0
  -12.0293    2.0053    4.1345 C   0  0  0  0  0  4           0  0  0
   -8.4306    1.5356    4.1766 C   0  0  0  0  0  4           0  0  0
  -12.8057    3.0058    3.5257 C   0  0  0  0  0  4           0  0  0
  -14.8428    1.8201    4.0991 C   0  0  0  0  0  4           0  0  0
  -12.6881    0.9136    4.7240 C   0  0  0  0  0  4           0  0  0
  -14.0826    0.8239    4.7050 C   0  0  0  0  0  4           0  0  0
   -9.9047    3.3177    4.1717 C   0  0  0  0  0  4           0  0  0
   -9.7533    0.9715    4.1564 C   0  0  0  0  0  4           0  0  0
   -6.3442   -0.0000    4.1907 C   0  0  0  0  0  4           0  0  0
   -4.8306    0.0000    4.2191 C   0  0  0  0  0  4           0  0  0
   -4.2380   -0.0000    2.8129 C   0  0  0  0  0  4           0  0  0
   -2.7117    0.0000    2.8129 C   0  0  0  0  0  4           0  0  0
   -2.1190   -0.0000    1.4064 C   0  0  0  0  0  4           0  0  0
   -0.5927    0.0000    1.4064 C   0  0  0  0  0  4           0  0  0
    0.0000   -0.0000    0.0000 C   0  0  0  0  0  4           0  0  0
    1.5260    0.0000    0.0000 C   0  0  0  0  0  4           0  0  0
    2.1188    0.0000   -1.4064 C   0  0  0  0  0  4           0  0  0
    3.6450    0.0000   -1.4064 C   0  0  0  0  0  4           0  0  0
    4.2378    0.0000   -2.8129 C   0  0  0  0  0  4           0  0  0
    5.7640    0.0000   -2.8129 C   0  0  0  0  0  4           0  0  0
    6.3567    0.0000   -4.2193 C   0  0  0  0  0  4           0  0  0
    7.8830    0.0000   -4.2193 C   0  0  0  0  0  4           0  0  0
    8.4757    0.0000   -5.6258 C   0  0  0  0  0  4           0  0  0
   10.0019    0.0000   -5.6258 C   0  0  0  0  0  4           0  0  0
   10.5947    0.0000   -7.0322 C   0  0  0  0  0  4           0  0  0
   12.1162    0.0000   -7.0310 C   0  0  0  0  0  4           0  0  0
  1  8  1  0     0  0
  2 17  2  0     0  0
  3 18  2  0     0  0
  4 19  2  0     0  0
  5  6  1  0     0  0
  5  9  1  0     0  0
  6 10  2  0     0  0
  7 11  1  0     0  0
  7 17  1  0     0  0
  7 18  1  0     0  0
  8 13  1  0     0  0
  8 14  2  0     0  0
  9 12  2  0     0  0
  9 17  1  0     0  0
 10 12  1  0     0  0
 10 19  1  0     0  0
 11 13  2  0     0  0
 11 15  1  0     0  0
 12 18  1  0     0  0
 14 16  1  0     0  0
 15 16  2  0     0  0
 19 20  1  0     0  0
 20 21  1  0     0  0
 21 22  1  0     0  0
 22 23  1  0     0  0
 23 24  1  0     0  0
 24 25  1  0     0  0
 25 26  1  0     0  0
 26 27  1  0     0  0
 27 28  1  0     0  0
 28 29  1  0     0  0
 29 30  1  0     0  0
 30 31  1  0     0  0
 31 32  1  0     0  0
 32 33  1  0     0  0
 33 34  1  0     0  0
 34 35  1  0     0  0
 35 36  1  0     0  0
M  END
> <standard_type>
pIC50

> <# Confs.>
25

> <canonical_smiles>
O=C1C2=C(C(C(CCCCCCCCCCCCCCCCC)=O)=NN2)C(N1C3=CC(Br)=CC=C3)=O

> <standard_relation>
=

> <predicted_activity_value>
6.090443970758825

> <actual_activity_value>
5.995678626217358

> <Compound>
24

> <publication_ID>
nan

> <standard_units>
nM

> hash
880138860404581231

$$$$
24_
XXILIB    08252103423D 0   0.00000     0.00000

 36 38  0     1  0            999 V2000
  -14.9627    0.6324    5.3942 Br  0  0  0  0  0  1           0  0  0
  -10.3050   -4.4699    4.0597 O   0  0  0  0  0  2           0  0  0
  -10.0069    0.2216    4.1014 O   0  0  0  0  0  2           0  0  0
   -6.9585    1.0666    4.1791 O   0  0  0  0  0  2           0  0  0
   -7.3006   -3.4003    4.1438 N   0  0  0  0  0  3           0  0  0
   -6.3570   -2.4285    4.1780 N   0  0  0  0  0  3           0  0  0
  -10.6094   -2.0963    4.0659 N   0  0  2  0  0  3           0  0  0
  -14.0877   -0.8403    4.5896 C   0  0  0  0  0  4           0  0  0
   -8.5455   -2.8906    4.1137 C   0  0  0  0  0  4           0  0  0
   -7.0551   -1.2699    4.1646 C   0  0  0  0  0  4           0  0  0
  -12.0274   -2.0053    4.0329 C   0  0  0  0  0  4           0  0  0
   -8.4296   -1.5356    4.1263 C   0  0  0  0  0  4           0  0  0
  -12.6926   -0.9195    4.6270 C   0  0  0  0  0  4           0  0  0
  -14.8410   -1.8313    3.9660 C   0  0  0  0  0  4           0  0  0
  -12.7971   -2.9997    3.4068 C   0  0  0  0  0  4           0  0  0
  -14.1916   -2.9112    3.3748 C   0  0  0  0  0  4           0  0  0
   -9.9029   -3.3177    4.0757 C   0  0  0  0  0  4           0  0  0
   -9.7521   -0.9715    4.0967 C   0  0  0  0  0  4           0  0  0
   -6.3442   -0.0000    4.1907 C   0  0  0  0  0  4           0  0  0
   -4.8306    0.0000    4.2191 C   0  0  0  0  0  4           0  0  0
   -4.2380   -0.0000    2.8129 C   0  0  0  0  0  4           0  0  0
   -2.7117    0.0000    2.8129 C   0  0  0  0  0  4           0  0  0
   -2.1190   -0.0000    1.4064 C   0  0  0  0  0  4           0  0  0
   -0.5927    0.0000    1.4064 C   0  0  0  0  0  4           0  0  0
    0.0000   -0.0000    0.0000 C   0  0  0  0  0  4           0  0  0
    1.5260    0.0000    0.0000 C   0  0  0  0  0  4           0  0  0
    2.1188    0.0000   -1.4064 C   0  0  0  0  0  4           0  0  0
    3.6450    0.0000   -1.4064 C   0  0  0  0  0  4           0  0  0
    4.2378    0.0000   -2.8129 C   0  0  0  0  0  4           0  0  0
    5.7640    0.0000   -2.8129 C   0  0  0  0  0  4           0  0  0
    6.3567    0.0000   -4.2193 C   0  0  0  0  0  4           0  0  0
    7.8830    0.0000   -4.2193 C   0  0  0  0  0  4           0  0  0
    8.4757    0.0000   -5.6258 C   0  0  0  0  0  4           0  0  0
   10.0019    0.0000   -5.6258 C   0  0  0  0  0  4           0  0  0
   10.5947    0.0000   -7.0322 C   0  0  0  0  0  4           0  0  0
   12.1162    0.0000   -7.0310 C   0  0  0  0  0  4           0  0  0
  1  8  1  0     0  0
  2 17  2  0     0  0
  3 18  2  0     0  0
  4 19  2  0     0  0
  5  6  1  0     0  0
  5  9  1  0     0  0
  6 10  2  0     0  0
  7 11  1  0     0  0
  7 17  1  0     0  0
  7 18  1  0     0  0
  8 13  1  0     0  0
  8 14  2  0     0  0
  9 12  2  0     0  0
  9 17  1  0     0  0
 10 12  1  0     0  0
 10 19  1  0     0  0
 11 13  2  0     0  0
 11 15  1  0     0  0
 12 18  1  0     0  0
 14 16  1  0     0  0
 15 16  2  0     0  0
 19 20  1  0     0  0
 20 21  1  0     0  0
 21 22  1  0     0  0
 22 23  1  0     0  0
 23 24  1  0     0  0
 24 25  1  0     0  0
 25 26  1  0     0  0
 26 27  1  0     0  0
 27 28  1  0     0  0
 28 29  1  0     0  0
 29 30  1  0     0  0
 30 31  1  0     0  0
 31 32  1  0     0  0
 32 33  1  0     0  0
 33 34  1  0     0  0
 34 35  1  0     0  0
 35 36  1  0     0  0
M  END
> <standard_type>
pIC50

> <# Confs.>
25

> <canonical_smiles>
O=C1C2=C(C(C(CCCCCCCCCCCCCCCCC)=O)=NN2)C(N1C3=CC(Br)=CC=C3)=O

> <standard_relation>
=

> <predicted_activity_value>
6.090443970758825

> <actual_activity_value>
5.995678626217358

> <Compound>
24

> <publication_ID>
nan

> <standard_units>
nM

> hash
880138860404581231

$$$$
24_
XXILIB    08252103423D 0   0.00000     0.00000

 36 38  0     1  0            999 V2000
  -15.2928   -3.4192    6.9566 Br  0  0  0  0  0  1           0  0  0
  -10.3783   -2.2838    7.9582 O   0  0  0  0  0  2           0  0  0
  -10.0035    0.0932    3.9197 O   0  0  0  0  0  2           0  0  0
   -6.9411    0.5333    3.2556 O   0  0  0  0  0  2           0  0  0
   -7.3563   -1.7252    7.1025 N   0  0  0  0  0  3           0  0  0
   -6.3967   -1.2250    6.2870 N   0  0  0  0  0  3           0  0  0
  -10.6439   -1.0867    5.9033 N   0  0  2  0  0  3           0  0  0
  -14.2452   -2.0254    6.2206 C   0  0  0  0  0  4           0  0  0
   -8.5929   -1.4761    6.6344 C   0  0  0  0  0  4           0  0  0
   -7.0759   -0.6459    5.2705 C   0  0  0  0  0  4           0  0  0
  -12.0605   -1.0466    5.7947 C   0  0  0  0  0  4           0  0  0
   -8.4549   -0.7896    5.4685 C   0  0  0  0  0  4           0  0  0
  -12.8528   -2.0743    6.3339 C   0  0  0  0  0  4           0  0  0
  -14.8704   -0.9626    5.5741 C   0  0  0  0  0  4           0  0  0
  -12.7017    0.0207    5.1442 C   0  0  0  0  0  4           0  0  0
  -14.0945    0.0602    5.0362 C   0  0  0  0  0  4           0  0  0
   -9.9574   -1.7004    6.9724 C   0  0  0  0  0  4           0  0  0
   -9.7683   -0.5117    4.9528 C   0  0  0  0  0  4           0  0  0
   -6.3442   -0.0000    4.1907 C   0  0  0  0  0  4           0  0  0
   -4.8306    0.0000    4.2191 C   0  0  0  0  0  4           0  0  0
   -4.2380   -0.0000    2.8129 C   0  0  0  0  0  4           0  0  0
   -2.7117    0.0000    2.8129 C   0  0  0  0  0  4           0  0  0
   -2.1190   -0.0000    1.4064 C   0  0  0  0  0  4           0  0  0
   -0.5927    0.0000    1.4064 C   0  0  0  0  0  4           0  0  0
    0.0000   -0.0000    0.0000 C   0  0  0  0  0  4           0  0  0
    1.5260    0.0000    0.0000 C   0  0  0  0  0  4           0  0  0
    2.1188    0.0000   -1.4064 C   0  0  0  0  0  4           0  0  0
    3.6450    0.0000   -1.4064 C   0  0  0  0  0  4           0  0  0
    4.2378    0.0000   -2.8129 C   0  0  0  0  0  4           0  0  0
    5.7640    0.0000   -2.8129 C   0  0  0  0  0  4           0  0  0
    6.3567    0.0000   -4.2193 C   0  0  0  0  0  4           0  0  0
    7.8830    0.0000   -4.2193 C   0  0  0  0  0  4           0  0  0
    8.4757    0.0000   -5.6258 C   0  0  0  0  0  4           0  0  0
   10.0019    0.0000   -5.6258 C   0  0  0  0  0  4           0  0  0
   10.5947    0.0000   -7.0322 C   0  0  0  0  0  4           0  0  0
   12.1162    0.0000   -7.0310 C   0  0  0  0  0  4           0  0  0
  1  8  1  0     0  0
  2 17  2  0     0  0
  3 18  2  0     0  0
  4 19  2  0     0  0
  5  6  1  0     0  0
  5  9  1  0     0  0
  6 10  2  0     0  0
  7 11  1  0     0  0
  7 17  1  0     0  0
  7 18  1  0     0  0
  8 13  1  0     0  0
  8 14  2  0     0  0
  9 12  2  0     0  0
  9 17  1  0     0  0
 10 12  1  0     0  0
 10 19  1  0     0  0
 11 13  2  0     0  0
 11 15  1  0     0  0
 12 18  1  0     0  0
 14 16  1  0     0  0
 15 16  2  0     0  0
 19 20  1  0     0  0
 20 21  1  0     0  0
 21 22  1  0     0  0
 22 23  1  0     0  0
 23 24  1  0     0  0
 24 25  1  0     0  0
 25 26  1  0     0  0
 26 27  1  0     0  0
 27 28  1  0     0  0
 28 29  1  0     0  0
 29 30  1  0     0  0
 30 31  1  0     0  0
 31 32  1  0     0  0
 32 33  1  0     0  0
 33 34  1  0     0  0
 34 35  1  0     0  0
 35 36  1  0     0  0
M  END
> <standard_type>
pIC50

> <# Confs.>
25

> <canonical_smiles>
O=C1C2=C(C(C(CCCCCCCCCCCCCCCCC)=O)=NN2)C(N1C3=CC(Br)=CC=C3)=O

> <standard_relation>
=

> <predicted_activity_value>
6.090443970758825

> <actual_activity_value>
5.995678626217358

> <Compound>
24

> <publication_ID>
nan

> <standard_units>
nM

> hash
880138860404581231

$$$$
24_
XXILIB    08252103423D 0   0.00000     0.00000

 36 38  0     1  0            999 V2000
  -14.9113   -0.6324    2.6638 Br  0  0  0  0  0  1           0  0  0
  -10.3071    4.4699    4.1726 O   0  0  0  0  0  2           0  0  0
  -10.0077   -0.2216    4.1421 O   0  0  0  0  0  2           0  0  0
   -6.9585   -1.0666    4.1791 O   0  0  0  0  0  2           0  0  0
   -7.3017    3.4003    4.2016 N   0  0  0  0  0  3           0  0  0
   -6.3575    2.4285    4.2028 N   0  0  0  0  0  3           0  0  0
  -10.6110    2.0963    4.1549 N   0  0  2  0  0  3           0  0  0
  -14.0672    0.8403    3.5007 C   0  0  0  0  0  4           0  0  0
   -8.5468    2.8906    4.1848 C   0  0  0  0  0  4           0  0  0
   -7.0555    1.2699    4.1899 C   0  0  0  0  0  4           0  0  0
  -12.0293    2.0053    4.1345 C   0  0  0  0  0  4           0  0  0
   -8.4306    1.5356    4.1766 C   0  0  0  0  0  4           0  0  0
  -12.6717    0.9195    3.5158 C   0  0  0  0  0  4           0  0  0
  -14.8435    1.8313    4.0956 C   0  0  0  0  0  4           0  0  0
  -12.8221    2.9997    4.7312 C   0  0  0  0  0  4           0  0  0
  -14.2167    2.9112    4.7107 C   0  0  0  0  0  4           0  0  0
   -9.9047    3.3177    4.1717 C   0  0  0  0  0  4           0  0  0
   -9.7533    0.9715    4.1564 C   0  0  0  0  0  4           0  0  0
   -6.3442   -0.0000    4.1907 C   0  0  0  0  0  4           0  0  0
   -4.8306    0.0000    4.2191 C   0  0  0  0  0  4           0  0  0
   -4.2380   -0.0000    2.8129 C   0  0  0  0  0  4           0  0  0
   -2.7117    0.0000    2.8129 C   0  0  0  0  0  4           0  0  0
   -2.1190   -0.0000    1.4064 C   0  0  0  0  0  4           0  0  0
   -0.5927    0.0000    1.4064 C   0  0  0  0  0  4           0  0  0
    0.0000   -0.0000    0.0000 C   0  0  0  0  0  4           0  0  0
    1.5260    0.0000    0.0000 C   0  0  0  0  0  4           0  0  0
    2.1188    0.0000   -1.4064 C   0  0  0  0  0  4           0  0  0
    3.6450    0.0000   -1.4064 C   0  0  0  0  0  4           0  0  0
    4.2378    0.0000   -2.8129 C   0  0  0  0  0  4           0  0  0
    5.7640    0.0000   -2.8129 C   0  0  0  0  0  4           0  0  0
    6.3567    0.0000   -4.2193 C   0  0  0  0  0  4           0  0  0
    7.8830    0.0000   -4.2193 C   0  0  0  0  0  4           0  0  0
    8.4757    0.0000   -5.6258 C   0  0  0  0  0  4           0  0  0
   10.0019    0.0000   -5.6258 C   0  0  0  0  0  4           0  0  0
   10.5947    0.0000   -7.0322 C   0  0  0  0  0  4           0  0  0
   12.1162    0.0000   -7.0310 C   0  0  0  0  0  4           0  0  0
  1  8  1  0     0  0
  2 17  2  0     0  0
  3 18  2  0     0  0
  4 19  2  0     0  0
  5  6  1  0     0  0
  5  9  1  0     0  0
  6 10  2  0     0  0
  7 11  1  0     0  0
  7 17  1  0     0  0
  7 18  1  0     0  0
  8 13  1  0     0  0
  8 14  2  0     0  0
  9 12  2  0     0  0
  9 17  1  0     0  0
 10 12  1  0     0  0
 10 19  1  0     0  0
 11 13  2  0     0  0
 11 15  1  0     0  0
 12 18  1  0     0  0
 14 16  1  0     0  0
 15 16  2  0     0  0
 19 20  1  0     0  0
 20 21  1  0     0  0
 21 22  1  0     0  0
 22 23  1  0     0  0
 23 24  1  0     0  0
 24 25  1  0     0  0
 25 26  1  0     0  0
 26 27  1  0     0  0
 27 28  1  0     0  0
 28 29  1  0     0  0
 29 30  1  0     0  0
 30 31  1  0     0  0
 31 32  1  0     0  0
 32 33  1  0     0  0
 33 34  1  0     0  0
 34 35  1  0     0  0
 35 36  1  0     0  0
M  END
> <standard_type>
pIC50

> <# Confs.>
25

> <canonical_smiles>
O=C1C2=C(C(C(CCCCCCCCCCCCCCCCC)=O)=NN2)C(N1C3=CC(Br)=CC=C3)=O

> <standard_relation>
=

> <predicted_activity_value>
6.090443970758825

> <actual_activity_value>
5.995678626217358

> <Compound>
24

> <publication_ID>
nan

> <standard_units>
nM

> hash
880138860404581231

$$$$
24_
XXILIB    08252103423D 0   0.00000     0.00000

 36 38  0     1  0            999 V2000
  -14.8959    0.6469    2.5618 Br  0  0  0  0  0  1           0  0  0
  -10.3050   -4.4699    4.0597 O   0  0  0  0  0  2           0  0  0
  -10.0069    0.2216    4.1014 O   0  0  0  0  0  2           0  0  0
   -6.9585    1.0666    4.1791 O   0  0  0  0  0  2           0  0  0
   -7.3006   -3.4003    4.1438 N   0  0  0  0  0  3           0  0  0
   -6.3570   -2.4285    4.1780 N   0  0  0  0  0  3           0  0  0
  -10.6094   -2.0963    4.0659 N   0  0  2  0  0  3           0  0  0
  -14.0594   -0.8326    3.3944 C   0  0  0  0  0  4           0  0  0
   -8.5455   -2.8906    4.1137 C   0  0  0  0  0  4           0  0  0
   -7.0551   -1.2699    4.1646 C   0  0  0  0  0  4           0  0  0
  -12.0274   -2.0053    4.0329 C   0  0  0  0  0  4           0  0  0
   -8.4296   -1.5356    4.1263 C   0  0  0  0  0  4           0  0  0
  -12.6641   -0.9127    3.4204 C   0  0  0  0  0  4           0  0  0
  -14.8410   -1.8293    3.9725 C   0  0  0  0  0  4           0  0  0
  -12.8256   -3.0050    4.6134 C   0  0  0  0  0  4           0  0  0
  -14.2199   -2.9156    4.5820 C   0  0  0  0  0  4           0  0  0
   -9.9029   -3.3177    4.0757 C   0  0  0  0  0  4           0  0  0
   -9.7521   -0.9715    4.0967 C   0  0  0  0  0  4           0  0  0
   -6.3442   -0.0000    4.1907 C   0  0  0  0  0  4           0  0  0
   -4.8306    0.0000    4.2191 C   0  0  0  0  0  4           0  0  0
   -4.2380   -0.0000    2.8129 C   0  0  0  0  0  4           0  0  0
   -2.7117    0.0000    2.8129 C   0  0  0  0  0  4           0  0  0
   -2.1190   -0.0000    1.4064 C   0  0  0  0  0  4           0  0  0
   -0.5927    0.0000    1.4064 C   0  0  0  0  0  4           0  0  0
    0.0000   -0.0000    0.0000 C   0  0  0  0  0  4           0  0  0
    1.5260    0.0000    0.0000 C   0  0  0  0  0  4           0  0  0
    2.1188    0.0000   -1.4064 C   0  0  0  0  0  4           0  0  0
    3.6450    0.0000   -1.4064 C   0  0  0  0  0  4           0  0  0
    4.2378    0.0000   -2.8129 C   0  0  0  0  0  4           0  0  0
    5.7640    0.0000   -2.8129 C   0  0  0  0  0  4           0  0  0
    6.3567    0.0000   -4.2193 C   0  0  0  0  0  4           0  0  0
    7.8830    0.0000   -4.2193 C   0  0  0  0  0  4           0  0  0
    8.4757    0.0000   -5.6258 C   0  0  0  0  0  4           0  0  0
   10.0019    0.0000   -5.6258 C   0  0  0  0  0  4           0  0  0
   10.5947    0.0000   -7.0322 C   0  0  0  0  0  4           0  0  0
   12.1162    0.0000   -7.0310 C   0  0  0  0  0  4           0  0  0
  1  8  1  0     0  0
  2 17  2  0     0  0
  3 18  2  0     0  0
  4 19  2  0     0  0
  5  6  1  0     0  0
  5  9  1  0     0  0
  6 10  2  0     0  0
  7 11  1  0     0  0
  7 17  1  0     0  0
  7 18  1  0     0  0
  8 13  1  0     0  0
  8 14  2  0     0  0
  9 12  2  0     0  0
  9 17  1  0     0  0
 10 12  1  0     0  0
 10 19  1  0     0  0
 11 13  2  0     0  0
 11 15  1  0     0  0
 12 18  1  0     0  0
 14 16  1  0     0  0
 15 16  2  0     0  0
 19 20  1  0     0  0
 20 21  1  0     0  0
 21 22  1  0     0  0
 22 23  1  0     0  0
 23 24  1  0     0  0
 24 25  1  0     0  0
 25 26  1  0     0  0
 26 27  1  0     0  0
 27 28  1  0     0  0
 28 29  1  0     0  0
 29 30  1  0     0  0
 30 31  1  0     0  0
 31 32  1  0     0  0
 32 33  1  0     0  0
 33 34  1  0     0  0
 34 35  1  0     0  0
 35 36  1  0     0  0
M  END
> <standard_type>
pIC50

> <# Confs.>
25

> <canonical_smiles>
O=C1C2=C(C(C(CCCCCCCCCCCCCCCCC)=O)=NN2)C(N1C3=CC(Br)=CC=C3)=O

> <standard_relation>
=

> <predicted_activity_value>
6.090443970758825

> <actual_activity_value>
5.995678626217358

> <Compound>
24

> <publication_ID>
nan

> <standard_units>
nM

> hash
880138860404581231

$$$$
24_
XXILIB    08252103423D 0   0.00000     0.00000

 36 38  0     1  0            999 V2000
  -15.3332   -0.9728    8.3852 Br  0  0  0  0  0  1           0  0  0
  -10.3783   -2.2838    7.9582 O   0  0  0  0  0  2           0  0  0
  -10.0035    0.0932    3.9197 O   0  0  0  0  0  2           0  0  0
   -6.9411    0.5333    3.2556 O   0  0  0  0  0  2           0  0  0
   -7.3563   -1.7252    7.1025 N   0  0  0  0  0  3           0  0  0
   -6.3967   -1.2250    6.2870 N   0  0  0  0  0  3           0  0  0
  -10.6439   -1.0867    5.9033 N   0  0  2  0  0  3           0  0  0
  -14.2623   -0.9939    6.8248 C   0  0  0  0  0  4           0  0  0
   -8.5929   -1.4761    6.6344 C   0  0  0  0  0  4           0  0  0
   -7.0759   -0.6459    5.2705 C   0  0  0  0  0  4           0  0  0
  -12.0605   -1.0466    5.7947 C   0  0  0  0  0  4           0  0  0
   -8.4549   -0.7896    5.4685 C   0  0  0  0  0  4           0  0  0
  -12.8700   -1.0324    6.9431 C   0  0  0  0  0  4           0  0  0
  -14.8705   -0.9692    5.5726 C   0  0  0  0  0  4           0  0  0
  -12.6845   -1.0219    4.5363 C   0  0  0  0  0  4           0  0  0
  -14.0774   -0.9834    4.4289 C   0  0  0  0  0  4           0  0  0
   -9.9574   -1.7004    6.9724 C   0  0  0  0  0  4           0  0  0
   -9.7683   -0.5117    4.9528 C   0  0  0  0  0  4           0  0  0
   -6.3442   -0.0000    4.1907 C   0  0  0  0  0  4           0  0  0
   -4.8306    0.0000    4.2191 C   0  0  0  0  0  4           0  0  0
   -4.2380   -0.0000    2.8129 C   0  0  0  0  0  4           0  0  0
   -2.7117    0.0000    2.8129 C   0  0  0  0  0  4           0  0  0
   -2.1190   -0.0000    1.4064 C   0  0  0  0  0  4           0  0  0
   -0.5927    0.0000    1.4064 C   0  0  0  0  0  4           0  0  0
    0.0000   -0.0000    0.0000 C   0  0  0  0  0  4           0  0  0
    1.5260    0.0000    0.0000 C   0  0  0  0  0  4           0  0  0
    2.1188    0.0000   -1.4064 C   0  0  0  0  0  4           0  0  0
    3.6450    0.0000   -1.4064 C   0  0  0  0  0  4           0  0  0
    4.2378    0.0000   -2.8129 C   0  0  0  0  0  4           0  0  0
    5.7640    0.0000   -2.8129 C   0  0  0  0  0  4           0  0  0
    6.3567    0.0000   -4.2193 C   0  0  0  0  0  4           0  0  0
    7.8830    0.0000   -4.2193 C   0  0  0  0  0  4           0  0  0
    8.4757    0.0000   -5.6258 C   0  0  0  0  0  4           0  0  0
   10.0019    0.0000   -5.6258 C   0  0  0  0  0  4           0  0  0
   10.5947    0.0000   -7.0322 C   0  0  0  0  0  4           0  0  0
   12.1162    0.0000   -7.0310 C   0  0  0  0  0  4           0  0  0
  1  8  1  0     0  0
  2 17  2  0     0  0
  3 18  2  0     0  0
  4 19  2  0     0  0
  5  6  1  0     0  0
  5  9  1  0     0  0
  6 10  2  0     0  0
  7 11  1  0     0  0
  7 17  1  0     0  0
  7 18  1  0     0  0
  8 13  1  0     0  0
  8 14  2  0     0  0
  9 12  2  0     0  0
  9 17  1  0     0  0
 10 12  1  0     0  0
 10 19  1  0     0  0
 11 13  2  0     0  0
 11 15  1  0     0  0
 12 18  1  0     0  0
 14 16  1  0     0  0
 15 16  2  0     0  0
 19 20  1  0     0  0
 20 21  1  0     0  0
 21 22  1  0     0  0
 22 23  1  0     0  0
 23 24  1  0     0  0
 24 25  1  0     0  0
 25 26  1  0     0  0
 26 27  1  0     0  0
 27 28  1  0     0  0
 28 29  1  0     0  0
 29 30  1  0     0  0
 30 31  1  0     0  0
 31 32  1  0     0  0
 32 33  1  0     0  0
 33 34  1  0     0  0
 34 35  1  0     0  0
 35 36  1  0     0  0
M  END
> <standard_type>
pIC50

> <# Confs.>
25

> <canonical_smiles>
O=C1C2=C(C(C(CCCCCCCCCCCCCCCCC)=O)=NN2)C(N1C3=CC(Br)=CC=C3)=O

> <standard_relation>
=

> <predicted_activity_value>
6.090443970758825

> <actual_activity_value>
5.995678626217358

> <Compound>
24

> <publication_ID>
nan

> <standard_units>
nM

> hash
880138860404581231

$$$$
24_
XXILIB    08252103423D 0   0.00000     0.00000

 36 38  0     1  0            999 V2000
  -15.3209    0.8311    8.4505 Br  0  0  0  0  0  1           0  0  0
  -10.3794    2.1860    8.0147 O   0  0  0  0  0  2           0  0  0
  -10.0039   -0.1284    3.9400 O   0  0  0  0  0  2           0  0  0
   -6.9411   -0.5333    3.2556 O   0  0  0  0  0  2           0  0  0
   -7.3568    1.6751    7.1313 N   0  0  0  0  0  3           0  0  0
   -6.3969    1.2035    6.2994 N   0  0  0  0  0  3           0  0  0
  -10.6448    1.0096    5.9478 N   0  0  2  0  0  3           0  0  0
  -14.2577    0.8737    6.8854 C   0  0  0  0  0  4           0  0  0
   -8.5935    1.4145    6.6699 C   0  0  0  0  0  4           0  0  0
   -7.0761    0.6240    5.2832 C   0  0  0  0  0  4           0  0  0
  -12.0615    0.9587    5.8455 C   0  0  0  0  0  4           0  0  0
   -8.4554    0.7460    5.4936 C   0  0  0  0  0  4           0  0  0
  -12.8652    0.9247    6.9975 C   0  0  0  0  0  4           0  0  0
  -14.8716    0.8555    5.6359 C   0  0  0  0  0  4           0  0  0
  -12.6912    0.9395    4.5899 C   0  0  0  0  0  4           0  0  0
  -14.0842    0.8885    4.4886 C   0  0  0  0  0  4           0  0  0
   -9.9583    1.6173    7.0204 C   0  0  0  0  0  4           0  0  0
   -9.7688    0.4599    4.9827 C   0  0  0  0  0  4           0  0  0
   -6.3442   -0.0000    4.1907 C   0  0  0  0  0  4           0  0  0
   -4.8306    0.0000    4.2191 C   0  0  0  0  0  4           0  0  0
   -4.2380   -0.0000    2.8129 C   0  0  0  0  0  4           0  0  0
   -2.7117    0.0000    2.8129 C   0  0  0  0  0  4           0  0  0
   -2.1190   -0.0000    1.4064 C   0  0  0  0  0  4           0  0  0
   -0.5927    0.0000    1.4064 C   0  0  0  0  0  4           0  0  0
    0.0000   -0.0000    0.0000 C   0  0  0  0  0  4           0  0  0
    1.5260    0.0000    0.0000 C   0  0  0  0  0  4           0  0  0
    2.1188    0.0000   -1.4064 C   0  0  0  0  0  4           0  0  0
    3.6450    0.0000   -1.4064 C   0  0  0  0  0  4           0  0  0
    4.2378    0.0000   -2.8129 C   0  0  0  0  0  4           0  0  0
    5.7640    0.0000   -2.8129 C   0  0  0  0  0  4           0  0  0
    6.3567    0.0000   -4.2193 C   0  0  0  0  0  4           0  0  0
    7.8830    0.0000   -4.2193 C   0  0  0  0  0  4           0  0  0
    8.4757    0.0000   -5.6258 C   0  0  0  0  0  4           0  0  0
   10.0019    0.0000   -5.6258 C   0  0  0  0  0  4           0  0  0
   10.5947    0.0000   -7.0322 C   0  0  0  0  0  4           0  0  0
   12.1162    0.0000   -7.0310 C   0  0  0  0  0  4           0  0  0
  1  8  1  0     0  0
  2 17  2  0     0  0
  3 18  2  0     0  0
  4 19  2  0     0  0
  5  6  1  0     0  0
  5  9  1  0     0  0
  6 10  2  0     0  0
  7 11  1  0     0  0
  7 17  1  0     0  0
  7 18  1  0     0  0
  8 13  1  0     0  0
  8 14  2  0     0  0
  9 12  2  0     0  0
  9 17  1  0     0  0
 10 12  1  0     0  0
 10 19  1  0     0  0
 11 13  2  0     0  0
 11 15  1  0     0  0
 12 18  1  0     0  0
 14 16  1  0     0  0
 15 16  2  0     0  0
 19 20  1  0     0  0
 20 21  1  0     0  0
 21 22  1  0     0  0
 22 23  1  0     0  0
 23 24  1  0     0  0
 24 25  1  0     0  0
 25 26  1  0     0  0
 26 27  1  0     0  0
 27 28  1  0     0  0
 28 29  1  0     0  0
 29 30  1  0     0  0
 30 31  1  0     0  0
 31 32  1  0     0  0
 32 33  1  0     0  0
 33 34  1  0     0  0
 34 35  1  0     0  0
 35 36  1  0     0  0
M  END
> <standard_type>
pIC50

> <# Confs.>
25

> <canonical_smiles>
O=C1C2=C(C(C(CCCCCCCCCCCCCCCCC)=O)=NN2)C(N1C3=CC(Br)=CC=C3)=O

> <standard_relation>
=

> <predicted_activity_value>
6.090443970758825

> <actual_activity_value>
5.995678626217358

> <Compound>
24

> <publication_ID>
nan

> <standard_units>
nM

> hash
880138860404581231

$$$$
24_
XXILIB    08252103423D 0   0.00000     0.00000

 36 38  0     1  0            999 V2000
  -14.9511   -0.6469    5.4967 Br  0  0  0  0  0  1           0  0  0
  -10.3071    4.4699    4.1726 O   0  0  0  0  0  2           0  0  0
  -10.0077   -0.2216    4.1421 O   0  0  0  0  0  2           0  0  0
   -6.9585   -1.0666    4.1791 O   0  0  0  0  0  2           0  0  0
   -7.3017    3.4003    4.2016 N   0  0  0  0  0  3           0  0  0
   -6.3575    2.4285    4.2028 N   0  0  0  0  0  3           0  0  0
  -10.6110    2.0963    4.1549 N   0  0  2  0  0  3           0  0  0
  -14.0839    0.8326    4.6961 C   0  0  0  0  0  4           0  0  0
   -8.5468    2.8906    4.1848 C   0  0  0  0  0  4           0  0  0
   -7.0555    1.2699    4.1899 C   0  0  0  0  0  4           0  0  0
  -12.0293    2.0053    4.1345 C   0  0  0  0  0  4           0  0  0
   -8.4306    1.5356    4.1766 C   0  0  0  0  0  4           0  0  0
  -12.6886    0.9127    4.7227 C   0  0  0  0  0  4           0  0  0
  -14.8432    1.8293    4.0891 C   0  0  0  0  0  4           0  0  0
  -12.8051    3.0050    3.5244 C   0  0  0  0  0  4           0  0  0
  -14.1996    2.9156    3.5033 C   0  0  0  0  0  4           0  0  0
   -9.9047    3.3177    4.1717 C   0  0  0  0  0  4           0  0  0
   -9.7533    0.9715    4.1564 C   0  0  0  0  0  4           0  0  0
   -6.3442   -0.0000    4.1907 C   0  0  0  0  0  4           0  0  0
   -4.8306    0.0000    4.2191 C   0  0  0  0  0  4           0  0  0
   -4.2380   -0.0000    2.8129 C   0  0  0  0  0  4           0  0  0
   -2.7117    0.0000    2.8129 C   0  0  0  0  0  4           0  0  0
   -2.1190   -0.0000    1.4064 C   0  0  0  0  0  4           0  0  0
   -0.5927    0.0000    1.4064 C   0  0  0  0  0  4           0  0  0
    0.0000   -0.0000    0.0000 C   0  0  0  0  0  4           0  0  0
    1.5260    0.0000    0.0000 C   0  0  0  0  0  4           0  0  0
    2.1188    0.0000   -1.4064 C   0  0  0  0  0  4           0  0  0
    3.6450    0.0000   -1.4064 C   0  0  0  0  0  4           0  0  0
    4.2378    0.0000   -2.8129 C   0  0  0  0  0  4           0  0  0
    5.7640    0.0000   -2.8129 C   0  0  0  0  0  4           0  0  0
    6.3567    0.0000   -4.2193 C   0  0  0  0  0  4           0  0  0
    7.8830    0.0000   -4.2193 C   0  0  0  0  0  4           0  0  0
    8.4757    0.0000   -5.6258 C   0  0  0  0  0  4           0  0  0
   10.0019    0.0000   -5.6258 C   0  0  0  0  0  4           0  0  0
   10.5947    0.0000   -7.0322 C   0  0  0  0  0  4           0  0  0
   12.1162    0.0000   -7.0310 C   0  0  0  0  0  4           0  0  0
  1  8  1  0     0  0
  2 17  2  0     0  0
  3 18  2  0     0  0
  4 19  2  0     0  0
  5  6  1  0     0  0
  5  9  1  0     0  0
  6 10  2  0     0  0
  7 11  1  0     0  0
  7 17  1  0     0  0
  7 18  1  0     0  0
  8 13  1  0     0  0
  8 14  2  0     0  0
  9 12  2  0     0  0
  9 17  1  0     0  0
 10 12  1  0     0  0
 10 19  1  0     0  0
 11 13  2  0     0  0
 11 15  1  0     0  0
 12 18  1  0     0  0
 14 16  1  0     0  0
 15 16  2  0     0  0
 19 20  1  0     0  0
 20 21  1  0     0  0
 21 22  1  0     0  0
 22 23  1  0     0  0
 23 24  1  0     0  0
 24 25  1  0     0  0
 25 26  1  0     0  0
 26 27  1  0     0  0
 27 28  1  0     0  0
 28 29  1  0     0  0
 29 30  1  0     0  0
 30 31  1  0     0  0
 31 32  1  0     0  0
 32 33  1  0     0  0
 33 34  1  0     0  0
 34 35  1  0     0  0
 35 36  1  0     0  0
M  END
> <standard_type>
pIC50

> <# Confs.>
25

> <canonical_smiles>
O=C1C2=C(C(C(CCCCCCCCCCCCCCCCC)=O)=NN2)C(N1C3=CC(Br)=CC=C3)=O

> <standard_relation>
=

> <predicted_activity_value>
6.090443970758825

> <actual_activity_value>
5.995678626217358

> <Compound>
24

> <publication_ID>
nan

> <standard_units>
nM

> hash
880138860404581231

$$$$
24_
XXILIB    08252103423D 0   0.00000     0.00000

 36 38  0     1  0            999 V2000
  -15.3080    3.2919    7.0465 Br  0  0  0  0  0  1           0  0  0
  -10.3794    2.1860    8.0147 O   0  0  0  0  0  2           0  0  0
  -10.0039   -0.1284    3.9400 O   0  0  0  0  0  2           0  0  0
   -6.9411   -0.5333    3.2556 O   0  0  0  0  0  2           0  0  0
   -7.3568    1.6751    7.1313 N   0  0  0  0  0  3           0  0  0
   -6.3969    1.2035    6.2994 N   0  0  0  0  0  3           0  0  0
  -10.6448    1.0096    5.9478 N   0  0  2  0  0  3           0  0  0
  -14.2524    1.9129    6.2944 C   0  0  0  0  0  4           0  0  0
   -8.5935    1.4145    6.6699 C   0  0  0  0  0  4           0  0  0
   -7.0761    0.6240    5.2832 C   0  0  0  0  0  4           0  0  0
  -12.0615    0.9587    5.8455 C   0  0  0  0  0  4           0  0  0
   -8.4554    0.7460    5.4936 C   0  0  0  0  0  4           0  0  0
  -12.8598    1.9734    6.3999 C   0  0  0  0  0  4           0  0  0
  -14.8718    0.8509    5.6409 C   0  0  0  0  0  4           0  0  0
  -12.6968   -0.1083    5.1888 C   0  0  0  0  0  4           0  0  0
  -14.0899   -0.1595    5.0886 C   0  0  0  0  0  4           0  0  0
   -9.9583    1.6173    7.0204 C   0  0  0  0  0  4           0  0  0
   -9.7688    0.4599    4.9827 C   0  0  0  0  0  4           0  0  0
   -6.3442   -0.0000    4.1907 C   0  0  0  0  0  4           0  0  0
   -4.8306    0.0000    4.2191 C   0  0  0  0  0  4           0  0  0
   -4.2380   -0.0000    2.8129 C   0  0  0  0  0  4           0  0  0
   -2.7117    0.0000    2.8129 C   0  0  0  0  0  4           0  0  0
   -2.1190   -0.0000    1.4064 C   0  0  0  0  0  4           0  0  0
   -0.5927    0.0000    1.4064 C   0  0  0  0  0  4           0  0  0
    0.0000   -0.0000    0.0000 C   0  0  0  0  0  4           0  0  0
    1.5260    0.0000    0.0000 C   0  0  0  0  0  4           0  0  0
    2.1188    0.0000   -1.4064 C   0  0  0  0  0  4           0  0  0
    3.6450    0.0000   -1.4064 C   0  0  0  0  0  4           0  0  0
    4.2378    0.0000   -2.8129 C   0  0  0  0  0  4           0  0  0
    5.7640    0.0000   -2.8129 C   0  0  0  0  0  4           0  0  0
    6.3567    0.0000   -4.2193 C   0  0  0  0  0  4           0  0  0
    7.8830    0.0000   -4.2193 C   0  0  0  0  0  4           0  0  0
    8.4757    0.0000   -5.6258 C   0  0  0  0  0  4           0  0  0
   10.0019    0.0000   -5.6258 C   0  0  0  0  0  4           0  0  0
   10.5947    0.0000   -7.0322 C   0  0  0  0  0  4           0  0  0
   12.1162    0.0000   -7.0310 C   0  0  0  0  0  4           0  0  0
  1  8  1  0     0  0
  2 17  2  0     0  0
  3 18  2  0     0  0
  4 19  2  0     0  0
  5  6  1  0     0  0
  5  9  1  0     0  0
  6 10  2  0     0  0
  7 11  1  0     0  0
  7 17  1  0     0  0
  7 18  1  0     0  0
  8 13  1  0     0  0
  8 14  2  0     0  0
  9 12  2  0     0  0
  9 17  1  0     0  0
 10 12  1  0     0  0
 10 19  1  0     0  0
 11 13  2  0     0  0
 11 15  1  0     0  0
 12 18  1  0     0  0
 14 16  1  0     0  0
 15 16  2  0     0  0
 19 20  1  0     0  0
 20 21  1  0     0  0
 21 22  1  0     0  0
 22 23  1  0     0  0
 23 24  1  0     0  0
 24 25  1  0     0  0
 25 26  1  0     0  0
 26 27  1  0     0  0
 27 28  1  0     0  0
 28 29  1  0     0  0
 29 30  1  0     0  0
 30 31  1  0     0  0
 31 32  1  0     0  0
 32 33  1  0     0  0
 33 34  1  0     0  0
 34 35  1  0     0  0
 35 36  1  0     0  0
M  END
> <standard_type>
pIC50

> <# Confs.>
25

> <canonical_smiles>
O=C1C2=C(C(C(CCCCCCCCCCCCCCCCC)=O)=NN2)C(N1C3=CC(Br)=CC=C3)=O

> <standard_relation>
=

> <predicted_activity_value>
6.090443970758825

> <actual_activity_value>
5.995678626217358

> <Compound>
24

> <publication_ID>
nan

> <standard_units>
nM

> hash
880138860404581231

$$$$
24_
XXILIB    08252103423D 0   0.00000     0.00000

 36 38  0     1  0            999 V2000
   -4.4741   10.9763    7.0537 Br  0  0  0  0  0  1           0  0  0
   -6.8135    6.6574    5.5311 O   0  0  0  0  0  2           0  0  0
   -3.1734    4.0598    6.9813 O   0  0  0  0  0  2           0  0  0
   -3.3754    1.1783    5.6892 O   0  0  0  0  0  2           0  0  0
   -6.8276    3.6967    4.3431 N   0  0  0  0  0  3           0  0  0
   -6.3287    2.4462    4.1900 N   0  0  0  0  0  3           0  0  0
   -4.8393    5.7114    6.4977 N   0  0  2  0  0  3           0  0  0
   -4.1299    9.2031    7.6184 C   0  0  0  0  0  4           0  0  0
   -6.0639    4.4454    5.1596 C   0  0  0  0  0  4           0  0  0
   -5.2058    2.4285    4.9440 C   0  0  0  0  0  4           0  0  0
   -4.3608    6.8087    7.2640 C   0  0  0  0  0  4           0  0  0
   -5.0209    3.6712    5.5628 C   0  0  0  0  0  4           0  0  0
   -4.6060    8.1313    6.8577 C   0  0  0  0  0  4           0  0  0
   -3.4069    8.9814    8.7874 C   0  0  0  0  0  4           0  0  0
   -3.6300    6.5964    8.4447 C   0  0  0  0  0  4           0  0  0
   -3.1584    7.6749    9.1982 C   0  0  0  0  0  4           0  0  0
   -6.0127    5.7551    5.7152 C   0  0  0  0  0  4           0  0  0
   -4.1929    4.4546    6.4396 C   0  0  0  0  0  4           0  0  0
   -4.4009    1.2175    5.0097 C   0  0  0  0  0  4           0  0  0
   -4.8306    0.0000    4.2191 C   0  0  0  0  0  4           0  0  0
   -4.2380    0.0000    2.8129 C   0  0  0  0  0  4           0  0  0
   -2.7117    0.0000    2.8129 C   0  0  0  0  0  4           0  0  0
   -2.1190    0.0000    1.4064 C   0  0  0  0  0  4           0  0  0
   -0.5927    0.0000    1.4064 C   0  0  0  0  0  4           0  0  0
    0.0000    0.0000    0.0000 C   0  0  0  0  0  4           0  0  0
    1.5260    0.0000    0.0000 C   0  0  0  0  0  4           0  0  0
    2.1188    0.0000   -1.4064 C   0  0  0  0  0  4           0  0  0
    3.6450    0.0000   -1.4064 C   0  0  0  0  0  4           0  0  0
    4.2378    0.0000   -2.8129 C   0  0  0  0  0  4           0  0  0
    5.7640    0.0000   -2.8129 C   0  0  0  0  0  4           0  0  0
    6.3567    0.0000   -4.2193 C   0  0  0  0  0  4           0  0  0
    7.8830    0.0000   -4.2193 C   0  0  0  0  0  4           0  0  0
    8.4757    0.0000   -5.6258 C   0  0  0  0  0  4           0  0  0
   10.0019    0.0000   -5.6258 C   0  0  0  0  0  4           0  0  0
   10.5947    0.0000   -7.0322 C   0  0  0  0  0  4           0  0  0
   12.1162    0.0000   -7.0310 C   0  0  0  0  0  4           0  0  0
  1  8  1  0     0  0
  2 17  2  0     0  0
  3 18  2  0     0  0
  4 19  2  0     0  0
  5  6  1  0     0  0
  5  9  1  0     0  0
  6 10  2  0     0  0
  7 11  1  0     0  0
  7 17  1  0     0  0
  7 18  1  0     0  0
  8 13  1  0     0  0
  8 14  2  0     0  0
  9 12  2  0     0  0
  9 17  1  0     0  0
 10 12  1  0     0  0
 10 19  1  0     0  0
 11 13  2  0     0  0
 11 15  1  0     0  0
 12 18  1  0     0  0
 14 16  1  0     0  0
 15 16  2  0     0  0
 19 20  1  0     0  0
 20 21  1  0     0  0
 21 22  1  0     0  0
 22 23  1  0     0  0
 23 24  1  0     0  0
 24 25  1  0     0  0
 25 26  1  0     0  0
 26 27  1  0     0  0
 27 28  1  0     0  0
 28 29  1  0     0  0
 29 30  1  0     0  0
 30 31  1  0     0  0
 31 32  1  0     0  0
 32 33  1  0     0  0
 33 34  1  0     0  0
 34 35  1  0     0  0
 35 36  1  0     0  0
M  END
> <standard_type>
pIC50

> <# Confs.>
25

> <canonical_smiles>
O=C1C2=C(C(C(CCCCCCCCCCCCCCCCC)=O)=NN2)C(N1C3=CC(Br)=CC=C3)=O

> <standard_relation>
=

> <predicted_activity_value>
6.090443970758825

> <actual_activity_value>
5.995678626217358

> <Compound>
24

> <publication_ID>
nan

> <standard_units>
nM

> hash
880138860404581231

$$$$
24_
XXILIB    08252103423D 0   0.00000     0.00000

 36 38  0     1  0            999 V2000
   -5.9878   10.0843    9.2763 Br  0  0  0  0  0  1           0  0  0
   -6.8135    6.6574    5.5311 O   0  0  0  0  0  2           0  0  0
   -3.1734    4.0598    6.9813 O   0  0  0  0  0  2           0  0  0
   -3.3754    1.1783    5.6892 O   0  0  0  0  0  2           0  0  0
   -6.8276    3.6967    4.3431 N   0  0  0  0  0  3           0  0  0
   -6.3287    2.4462    4.1900 N   0  0  0  0  0  3           0  0  0
   -4.8393    5.7114    6.4977 N   0  0  2  0  0  3           0  0  0
   -4.7700    8.8275    8.5558 C   0  0  0  0  0  4           0  0  0
   -6.0639    4.4454    5.1596 C   0  0  0  0  0  4           0  0  0
   -5.2058    2.4285    4.9440 C   0  0  0  0  0  4           0  0  0
   -4.3608    6.8087    7.2640 C   0  0  0  0  0  4           0  0  0
   -5.0209    3.6712    5.5628 C   0  0  0  0  0  4           0  0  0
   -5.2514    7.7516    7.8044 C   0  0  0  0  0  4           0  0  0
   -3.4051    8.9845    8.7817 C   0  0  0  0  0  4           0  0  0
   -2.9858    6.9769    7.4977 C   0  0  0  0  0  4           0  0  0
   -2.5146    8.0561    8.2504 C   0  0  0  0  0  4           0  0  0
   -6.0127    5.7551    5.7152 C   0  0  0  0  0  4           0  0  0
   -4.1929    4.4546    6.4396 C   0  0  0  0  0  4           0  0  0
   -4.4009    1.2175    5.0097 C   0  0  0  0  0  4           0  0  0
   -4.8306    0.0000    4.2191 C   0  0  0  0  0  4           0  0  0
   -4.2380    0.0000    2.8129 C   0  0  0  0  0  4           0  0  0
   -2.7117    0.0000    2.8129 C   0  0  0  0  0  4           0  0  0
   -2.1190    0.0000    1.4064 C   0  0  0  0  0  4           0  0  0
   -0.5927    0.0000    1.4064 C   0  0  0  0  0  4           0  0  0
    0.0000    0.0000    0.0000 C   0  0  0  0  0  4           0  0  0
    1.5260    0.0000    0.0000 C   0  0  0  0  0  4           0  0  0
    2.1188    0.0000   -1.4064 C   0  0  0  0  0  4           0  0  0
    3.6450    0.0000   -1.4064 C   0  0  0  0  0  4           0  0  0
    4.2378    0.0000   -2.8129 C   0  0  0  0  0  4           0  0  0
    5.7640    0.0000   -2.8129 C   0  0  0  0  0  4           0  0  0
    6.3567    0.0000   -4.2193 C   0  0  0  0  0  4           0  0  0
    7.8830    0.0000   -4.2193 C   0  0  0  0  0  4           0  0  0
    8.4757    0.0000   -5.6258 C   0  0  0  0  0  4           0  0  0
   10.0019    0.0000   -5.6258 C   0  0  0  0  0  4           0  0  0
   10.5947    0.0000   -7.0322 C   0  0  0  0  0  4           0  0  0
   12.1162    0.0000   -7.0310 C   0  0  0  0  0  4           0  0  0
  1  8  1  0     0  0
  2 17  2  0     0  0
  3 18  2  0     0  0
  4 19  2  0     0  0
  5  6  1  0     0  0
  5  9  1  0     0  0
  6 10  2  0     0  0
  7 11  1  0     0  0
  7 17  1  0     0  0
  7 18  1  0     0  0
  8 13  1  0     0  0
  8 14  2  0     0  0
  9 12  2  0     0  0
  9 17  1  0     0  0
 10 12  1  0     0  0
 10 19  1  0     0  0
 11 13  2  0     0  0
 11 15  1  0     0  0
 12 18  1  0     0  0
 14 16  1  0     0  0
 15 16  2  0     0  0
 19 20  1  0     0  0
 20 21  1  0     0  0
 21 22  1  0     0  0
 22 23  1  0     0  0
 23 24  1  0     0  0
 24 25  1  0     0  0
 25 26  1  0     0  0
 26 27  1  0     0  0
 27 28  1  0     0  0
 28 29  1  0     0  0
 29 30  1  0     0  0
 30 31  1  0     0  0
 31 32  1  0     0  0
 32 33  1  0     0  0
 33 34  1  0     0  0
 34 35  1  0     0  0
 35 36  1  0     0  0
M  END
> <standard_type>
pIC50

> <# Confs.>
25

> <canonical_smiles>
O=C1C2=C(C(C(CCCCCCCCCCCCCCCCC)=O)=NN2)C(N1C3=CC(Br)=CC=C3)=O

> <standard_relation>
=

> <predicted_activity_value>
6.090443970758825

> <actual_activity_value>
5.995678626217358

> <Compound>
24

> <publication_ID>
nan

> <standard_units>
nM

> hash
880138860404581231

$$$$
24_
XXILIB    08252103423D 0   0.00000     0.00000

 36 38  0     1  0            999 V2000
   -2.1829    7.3745   10.7801 Br  0  0  0  0  0  1           0  0  0
   -6.8135    6.6574    5.5311 O   0  0  0  0  0  2           0  0  0
   -3.1734    4.0598    6.9813 O   0  0  0  0  0  2           0  0  0
   -3.3754    1.1783    5.6892 O   0  0  0  0  0  2           0  0  0
   -6.8276    3.6967    4.3431 N   0  0  0  0  0  3           0  0  0
   -6.3287    2.4462    4.1900 N   0  0  0  0  0  3           0  0  0
   -4.8393    5.7114    6.4977 N   0  0  2  0  0  3           0  0  0
   -3.1658    7.6832    9.1925 C   0  0  0  0  0  4           0  0  0
   -6.0639    4.4454    5.1596 C   0  0  0  0  0  4           0  0  0
   -5.2058    2.4285    4.9440 C   0  0  0  0  0  4           0  0  0
   -4.3608    6.8087    7.2640 C   0  0  0  0  0  4           0  0  0
   -5.0209    3.6712    5.5628 C   0  0  0  0  0  4           0  0  0
   -3.6311    6.5968    8.4459 C   0  0  0  0  0  4           0  0  0
   -3.4157    8.9896    8.7811 C   0  0  0  0  0  4           0  0  0
   -4.6075    8.1307    6.8583 C   0  0  0  0  0  4           0  0  0
   -4.1379    9.2101    7.6118 C   0  0  0  0  0  4           0  0  0
   -6.0127    5.7551    5.7152 C   0  0  0  0  0  4           0  0  0
   -4.1929    4.4546    6.4396 C   0  0  0  0  0  4           0  0  0
   -4.4009    1.2175    5.0097 C   0  0  0  0  0  4           0  0  0
   -4.8306    0.0000    4.2191 C   0  0  0  0  0  4           0  0  0
   -4.2380    0.0000    2.8129 C   0  0  0  0  0  4           0  0  0
   -2.7117    0.0000    2.8129 C   0  0  0  0  0  4           0  0  0
   -2.1190    0.0000    1.4064 C   0  0  0  0  0  4           0  0  0
   -0.5927    0.0000    1.4064 C   0  0  0  0  0  4           0  0  0
    0.0000    0.0000    0.0000 C   0  0  0  0  0  4           0  0  0
    1.5260    0.0000    0.0000 C   0  0  0  0  0  4           0  0  0
    2.1188    0.0000   -1.4064 C   0  0  0  0  0  4           0  0  0
    3.6450    0.0000   -1.4064 C   0  0  0  0  0  4           0  0  0
    4.2378    0.0000   -2.8129 C   0  0  0  0  0  4           0  0  0
    5.7640    0.0000   -2.8129 C   0  0  0  0  0  4           0  0  0
    6.3567    0.0000   -4.2193 C   0  0  0  0  0  4           0  0  0
    7.8830    0.0000   -4.2193 C   0  0  0  0  0  4           0  0  0
    8.4757    0.0000   -5.6258 C   0  0  0  0  0  4           0  0  0
   10.0019    0.0000   -5.6258 C   0  0  0  0  0  4           0  0  0
   10.5947    0.0000   -7.0322 C   0  0  0  0  0  4           0  0  0
   12.1162    0.0000   -7.0310 C   0  0  0  0  0  4           0  0  0
  1  8  1  0     0  0
  2 17  2  0     0  0
  3 18  2  0     0  0
  4 19  2  0     0  0
  5  6  1  0     0  0
  5  9  1  0     0  0
  6 10  2  0     0  0
  7 11  1  0     0  0
  7 17  1  0     0  0
  7 18  1  0     0  0
  8 13  1  0     0  0
  8 14  2  0     0  0
  9 12  2  0     0  0
  9 17  1  0     0  0
 10 12  1  0     0  0
 10 19  1  0     0  0
 11 13  2  0     0  0
 11 15  1  0     0  0
 12 18  1  0     0  0
 14 16  1  0     0  0
 15 16  2  0     0  0
 19 20  1  0     0  0
 20 21  1  0     0  0
 21 22  1  0     0  0
 22 23  1  0     0  0
 23 24  1  0     0  0
 24 25  1  0     0  0
 25 26  1  0     0  0
 26 27  1  0     0  0
 27 28  1  0     0  0
 28 29  1  0     0  0
 29 30  1  0     0  0
 30 31  1  0     0  0
 31 32  1  0     0  0
 32 33  1  0     0  0
 33 34  1  0     0  0
 34 35  1  0     0  0
 35 36  1  0     0  0
M  END
> <standard_type>
pIC50

> <# Confs.>
25

> <canonical_smiles>
O=C1C2=C(C(C(CCCCCCCCCCCCCCCCC)=O)=NN2)C(N1C3=CC(Br)=CC=C3)=O

> <standard_relation>
=

> <predicted_activity_value>
6.090443970758825

> <actual_activity_value>
5.995678626217358

> <Compound>
24

> <publication_ID>
nan

> <standard_units>
nM

> hash
880138860404581231

$$$$
24_
XXILIB    08252103423D 0   0.00000     0.00000

 36 38  0     1  0            999 V2000
   -0.6692    8.2665    8.5575 Br  0  0  0  0  0  1           0  0  0
   -6.8135    6.6574    5.5311 O   0  0  0  0  0  2           0  0  0
   -3.1734    4.0598    6.9813 O   0  0  0  0  0  2           0  0  0
   -3.3754    1.1783    5.6892 O   0  0  0  0  0  2           0  0  0
   -6.8276    3.6967    4.3431 N   0  0  0  0  0  3           0  0  0
   -6.3287    2.4462    4.1900 N   0  0  0  0  0  3           0  0  0
   -4.8393    5.7114    6.4977 N   0  0  2  0  0  3           0  0  0
   -2.5258    8.0587    8.2551 C   0  0  0  0  0  4           0  0  0
   -6.0639    4.4454    5.1596 C   0  0  0  0  0  4           0  0  0
   -5.2058    2.4285    4.9440 C   0  0  0  0  0  4           0  0  0
   -4.3608    6.8087    7.2640 C   0  0  0  0  0  4           0  0  0
   -5.0209    3.6712    5.5628 C   0  0  0  0  0  4           0  0  0
   -2.9857    6.9765    7.4993 C   0  0  0  0  0  4           0  0  0
   -3.4176    8.9864    8.7868 C   0  0  0  0  0  4           0  0  0
   -5.2516    7.7503    7.8054 C   0  0  0  0  0  4           0  0  0
   -4.7817    8.8289    8.5597 C   0  0  0  0  0  4           0  0  0
   -6.0127    5.7551    5.7152 C   0  0  0  0  0  4           0  0  0
   -4.1929    4.4546    6.4396 C   0  0  0  0  0  4           0  0  0
   -4.4009    1.2175    5.0097 C   0  0  0  0  0  4           0  0  0
   -4.8306    0.0000    4.2191 C   0  0  0  0  0  4           0  0  0
   -4.2380    0.0000    2.8129 C   0  0  0  0  0  4           0  0  0
   -2.7117    0.0000    2.8129 C   0  0  0  0  0  4           0  0  0
   -2.1190    0.0000    1.4064 C   0  0  0  0  0  4           0  0  0
   -0.5927    0.0000    1.4064 C   0  0  0  0  0  4           0  0  0
    0.0000    0.0000    0.0000 C   0  0  0  0  0  4           0  0  0
    1.5260    0.0000    0.0000 C   0  0  0  0  0  4           0  0  0
    2.1188    0.0000   -1.4064 C   0  0  0  0  0  4           0  0  0
    3.6450    0.0000   -1.4064 C   0  0  0  0  0  4           0  0  0
    4.2378    0.0000   -2.8129 C   0  0  0  0  0  4           0  0  0
    5.7640    0.0000   -2.8129 C   0  0  0  0  0  4           0  0  0
    6.3567    0.0000   -4.2193 C   0  0  0  0  0  4           0  0  0
    7.8830    0.0000   -4.2193 C   0  0  0  0  0  4           0  0  0
    8.4757    0.0000   -5.6258 C   0  0  0  0  0  4           0  0  0
   10.0019    0.0000   -5.6258 C   0  0  0  0  0  4           0  0  0
   10.5947    0.0000   -7.0322 C   0  0  0  0  0  4           0  0  0
   12.1162    0.0000   -7.0310 C   0  0  0  0  0  4           0  0  0
  1  8  1  0     0  0
  2 17  2  0     0  0
  3 18  2  0     0  0
  4 19  2  0     0  0
  5  6  1  0     0  0
  5  9  1  0     0  0
  6 10  2  0     0  0
  7 11  1  0     0  0
  7 17  1  0     0  0
  7 18  1  0     0  0
  8 13  1  0     0  0
  8 14  2  0     0  0
  9 12  2  0     0  0
  9 17  1  0     0  0
 10 12  1  0     0  0
 10 19  1  0     0  0
 11 13  2  0     0  0
 11 15  1  0     0  0
 12 18  1  0     0  0
 14 16  1  0     0  0
 15 16  2  0     0  0
 19 20  1  0     0  0
 20 21  1  0     0  0
 21 22  1  0     0  0
 22 23  1  0     0  0
 23 24  1  0     0  0
 24 25  1  0     0  0
 25 26  1  0     0  0
 26 27  1  0     0  0
 27 28  1  0     0  0
 28 29  1  0     0  0
 29 30  1  0     0  0
 30 31  1  0     0  0
 31 32  1  0     0  0
 32 33  1  0     0  0
 33 34  1  0     0  0
 34 35  1  0     0  0
 35 36  1  0     0  0
M  END
> <standard_type>
pIC50

> <# Confs.>
25

> <canonical_smiles>
O=C1C2=C(C(C(CCCCCCCCCCCCCCCCC)=O)=NN2)C(N1C3=CC(Br)=CC=C3)=O

> <standard_relation>
=

> <predicted_activity_value>
6.090443970758825

> <actual_activity_value>
5.995678626217358

> <Compound>
24

> <publication_ID>
nan

> <standard_units>
nM

> hash
880138860404581231

$$$$
24_
XXILIB    08252103423D 0   0.00000     0.00000

 36 38  0     1  0            999 V2000
   -1.4401   10.1888   14.1214 Br  0  0  0  0  0  1           0  0  0
   -1.8093    5.4326   12.2015 O   0  0  0  0  0  2           0  0  0
    0.6286    6.6814    8.3808 O   0  0  0  0  0  2           0  0  0
    0.2285    4.4903    6.1332 O   0  0  0  0  0  2           0  0  0
   -2.0717    3.3454    9.8032 N   0  0  0  0  0  3           0  0  0
   -1.8099    2.8901    8.5542 N   0  0  0  0  0  3           0  0  0
   -0.4517    6.4338   10.5042 N   0  0  2  0  0  3           0  0  0
   -0.3534    9.3770   12.8017 C   0  0  0  0  0  4           0  0  0
   -1.4527    4.5138   10.0517 C   0  0  0  0  0  4           0  0  0
   -0.9961    3.8239    8.0106 C   0  0  0  0  0  4           0  0  0
   -0.0058    7.6069   11.1714 C   0  0  0  0  0  4           0  0  0
   -0.7570    4.8506    8.9326 C   0  0  0  0  0  4           0  0  0
   -0.8012    8.2230   12.1523 C   0  0  0  0  0  4           0  0  0
    0.8834    9.9353   12.4901 C   0  0  0  0  0  4           0  0  0
    1.2401    8.1787   10.8645 C   0  0  0  0  0  4           0  0  0
    1.6787    9.3328   11.5196 C   0  0  0  0  0  4           0  0  0
   -1.3043    5.4750   11.0913 C   0  0  0  0  0  4           0  0  0
   -0.0856    6.0981    9.1797 C   0  0  0  0  0  4           0  0  0
   -0.5128    3.6536    6.6483 C   0  0  0  0  0  4           0  0  0
   -0.9425    2.4360    5.8578 C   0  0  0  0  0  4           0  0  0
   -0.3498    2.4360    4.4515 C   0  0  0  0  0  4           0  0  0
   -0.7676    1.2180    3.6322 C   0  0  0  0  0  4           0  0  0
   -0.1749    1.2180    2.2258 C   0  0  0  0  0  4           0  0  0
   -0.5927    0.0000    1.4064 C   0  0  0  0  0  4           0  0  0
    0.0000    0.0000    0.0000 C   0  0  0  0  0  4           0  0  0
    1.5260    0.0000    0.0000 C   0  0  0  0  0  4           0  0  0
    2.1188    0.0000   -1.4064 C   0  0  0  0  0  4           0  0  0
    3.6450    0.0000   -1.4064 C   0  0  0  0  0  4           0  0  0
    4.2378    0.0000   -2.8129 C   0  0  0  0  0  4           0  0  0
    5.7640    0.0000   -2.8129 C   0  0  0  0  0  4           0  0  0
    6.3567    0.0000   -4.2193 C   0  0  0  0  0  4           0  0  0
    7.8830    0.0000   -4.2193 C   0  0  0  0  0  4           0  0  0
    8.4757    0.0000   -5.6258 C   0  0  0  0  0  4           0  0  0
   10.0019    0.0000   -5.6258 C   0  0  0  0  0  4           0  0  0
   10.5947    0.0000   -7.0322 C   0  0  0  0  0  4           0  0  0
   12.1162    0.0000   -7.0310 C   0  0  0  0  0  4           0  0  0
  1  8  1  0     0  0
  2 17  2  0     0  0
  3 18  2  0     0  0
  4 19  2  0     0  0
  5  6  1  0     0  0
  5  9  1  0     0  0
  6 10  2  0     0  0
  7 11  1  0     0  0
  7 17  1  0     0  0
  7 18  1  0     0  0
  8 13  1  0     0  0
  8 14  2  0     0  0
  9 12  2  0     0  0
  9 17  1  0     0  0
 10 12  1  0     0  0
 10 19  1  0     0  0
 11 13  2  0     0  0
 11 15  1  0     0  0
 12 18  1  0     0  0
 14 16  1  0     0  0
 15 16  2  0     0  0
 19 20  1  0     0  0
 20 21  1  0     0  0
 21 22  1  0     0  0
 22 23  1  0     0  0
 23 24  1  0     0  0
 24 25  1  0     0  0
 25 26  1  0     0  0
 26 27  1  0     0  0
 27 28  1  0     0  0
 28 29  1  0     0  0
 29 30  1  0     0  0
 30 31  1  0     0  0
 31 32  1  0     0  0
 32 33  1  0     0  0
 33 34  1  0     0  0
 34 35  1  0     0  0
 35 36  1  0     0  0
M  END
> <standard_type>
pIC50

> <# Confs.>
25

> <canonical_smiles>
O=C1C2=C(C(C(CCCCCCCCCCCCCCCCC)=O)=NN2)C(N1C3=CC(Br)=CC=C3)=O

> <standard_relation>
=

> <predicted_activity_value>
6.090443970758825

> <actual_activity_value>
5.995678626217358

> <Compound>
24

> <publication_ID>
nan

> <standard_units>
nM

> hash
880138860404581231

$$$$
24_
XXILIB    08252103423D 0   0.00000     0.00000

 36 38  0     1  0            999 V2000
  -15.3176   -1.4942    8.2729 Br  0  0  0  0  0  1           0  0  0
  -10.3901   -0.0565    8.5852 O   0  0  0  0  0  2           0  0  0
  -10.0032   -0.0204    3.9002 O   0  0  0  0  0  2           0  0  0
   -6.9384   -0.0000    3.1127 O   0  0  0  0  0  2           0  0  0
   -7.3651   -0.0289    7.5724 N   0  0  0  0  0  3           0  0  0
   -6.4030   -0.0124    6.6185 N   0  0  0  0  0  3           0  0  0
  -10.6496   -0.0445    6.2064 N   0  0  2  0  0  3           0  0  0
  -14.2587   -0.6650    6.9414 C   0  0  0  0  0  4           0  0  0
   -8.6005   -0.0355    7.0393 C   0  0  0  0  0  4           0  0  0
   -7.0792   -0.0127    5.4470 C   0  0  0  0  0  4           0  0  0
  -12.0661   -0.0508    6.0887 C   0  0  0  0  0  4           0  0  0
   -8.4590   -0.0251    5.6867 C   0  0  0  0  0  4           0  0  0
  -12.8666   -0.6637    7.0674 C   0  0  0  0  0  4           0  0  0
  -14.8756   -0.0618    5.8485 C   0  0  0  0  0  4           0  0  0
  -12.6988    0.5543    4.9901 C   0  0  0  0  0  4           0  0  0
  -14.0915    0.5477    4.8734 C   0  0  0  0  0  4           0  0  0
   -9.9662   -0.0480    7.4408 C   0  0  0  0  0  4           0  0  0
   -9.7710   -0.0299    5.0979 C   0  0  0  0  0  4           0  0  0
   -6.3442   -0.0000    4.1907 C   0  0  0  0  0  4           0  0  0
   -4.8306    0.0000    4.2191 C   0  0  0  0  0  4           0  0  0
   -4.2380   -0.0000    2.8129 C   0  0  0  0  0  4           0  0  0
   -2.7117    0.0000    2.8129 C   0  0  0  0  0  4           0  0  0
   -2.1190   -0.0000    1.4064 C   0  0  0  0  0  4           0  0  0
   -0.5927    0.0000    1.4064 C   0  0  0  0  0  4           0  0  0
    0.0000   -0.0000    0.0000 C   0  0  0  0  0  4           0  0  0
    1.5260   -0.0000    0.0000 C   0  0  0  0  0  4           0  0  0
    2.1188    0.0000   -1.4064 C   0  0  0  0  0  4           0  0  0
    3.6450    0.0000   -1.4064 C   0  0  0  0  0  4           0  0  0
    4.2378   -1.2180   -0.7032 C   0  0  0  0  0  4           0  0  0
    5.7640   -1.2180   -0.7032 C   0  0  0  0  0  4           0  0  0
    6.3567   -2.4360    0.0000 C   0  0  0  0  0  4           0  0  0
    7.8830   -2.4360    0.0000 C   0  0  0  0  0  4           0  0  0
    8.4757   -3.6540    0.7032 C   0  0  0  0  0  4           0  0  0
   10.0019   -3.6540    0.7032 C   0  0  0  0  0  4           0  0  0
   10.5947   -4.8721    1.4064 C   0  0  0  0  0  4           0  0  0
   12.1162   -4.8710    1.4058 C   0  0  0  0  0  4           0  0  0
  1  8  1  0     0  0
  2 17  2  0     0  0
  3 18  2  0     0  0
  4 19  2  0     0  0
  5  6  1  0     0  0
  5  9  1  0     0  0
  6 10  2  0     0  0
  7 11  1  0     0  0
  7 17  1  0     0  0
  7 18  1  0     0  0
  8 13  1  0     0  0
  8 14  2  0     0  0
  9 12  2  0     0  0
  9 17  1  0     0  0
 10 12  1  0     0  0
 10 19  1  0     0  0
 11 13  2  0     0  0
 11 15  1  0     0  0
 12 18  1  0     0  0
 14 16  1  0     0  0
 15 16  2  0     0  0
 19 20  1  0     0  0
 20 21  1  0     0  0
 21 22  1  0     0  0
 22 23  1  0     0  0
 23 24  1  0     0  0
 24 25  1  0     0  0
 25 26  1  0     0  0
 26 27  1  0     0  0
 27 28  1  0     0  0
 28 29  1  0     0  0
 29 30  1  0     0  0
 30 31  1  0     0  0
 31 32  1  0     0  0
 32 33  1  0     0  0
 33 34  1  0     0  0
 34 35  1  0     0  0
 35 36  1  0     0  0
M  END
> <standard_type>
pIC50

> <# Confs.>
25

> <canonical_smiles>
O=C1C2=C(C(C(CCCCCCCCCCCCCCCCC)=O)=NN2)C(N1C3=CC(Br)=CC=C3)=O

> <standard_relation>
=

> <predicted_activity_value>
6.090443970758825

> <actual_activity_value>
5.995678626217358

> <Compound>
24

> <publication_ID>
nan

> <standard_units>
nM

> hash
880138860404581231

$$$$
24_
XXILIB    08252103423D 0   0.00000     0.00000

 36 38  0     1  0            999 V2000
  -15.3176   -1.4942    8.2729 Br  0  0  0  0  0  1           0  0  0
  -10.3901   -0.0565    8.5852 O   0  0  0  0  0  2           0  0  0
  -10.0032   -0.0204    3.9002 O   0  0  0  0  0  2           0  0  0
   -6.9384   -0.0000    3.1127 O   0  0  0  0  0  2           0  0  0
   -7.3651   -0.0289    7.5724 N   0  0  0  0  0  3           0  0  0
   -6.4030   -0.0124    6.6185 N   0  0  0  0  0  3           0  0  0
  -10.6496   -0.0445    6.2064 N   0  0  2  0  0  3           0  0  0
  -14.2587   -0.6650    6.9414 C   0  0  0  0  0  4           0  0  0
   -8.6005   -0.0355    7.0393 C   0  0  0  0  0  4           0  0  0
   -7.0792   -0.0127    5.4470 C   0  0  0  0  0  4           0  0  0
  -12.0661   -0.0508    6.0887 C   0  0  0  0  0  4           0  0  0
   -8.4590   -0.0251    5.6867 C   0  0  0  0  0  4           0  0  0
  -12.8666   -0.6637    7.0674 C   0  0  0  0  0  4           0  0  0
  -14.8756   -0.0618    5.8485 C   0  0  0  0  0  4           0  0  0
  -12.6988    0.5543    4.9901 C   0  0  0  0  0  4           0  0  0
  -14.0915    0.5477    4.8734 C   0  0  0  0  0  4           0  0  0
   -9.9662   -0.0480    7.4408 C   0  0  0  0  0  4           0  0  0
   -9.7710   -0.0299    5.0979 C   0  0  0  0  0  4           0  0  0
   -6.3442   -0.0000    4.1907 C   0  0  0  0  0  4           0  0  0
   -4.8306    0.0000    4.2191 C   0  0  0  0  0  4           0  0  0
   -4.2380   -0.0000    2.8129 C   0  0  0  0  0  4           0  0  0
   -2.7117    0.0000    2.8129 C   0  0  0  0  0  4           0  0  0
   -2.1190   -0.0000    1.4064 C   0  0  0  0  0  4           0  0  0
   -0.5927    0.0000    1.4064 C   0  0  0  0  0  4           0  0  0
    0.0000   -0.0000    0.0000 C   0  0  0  0  0  4           0  0  0
    1.5260   -0.0000   -0.0000 C   0  0  0  0  0  4           0  0  0
    2.1188    0.0000   -1.4064 C   0  0  0  0  0  4           0  0  0
    3.6450   -0.0000   -1.4064 C   0  0  0  0  0  4           0  0  0
    4.2378    0.0000   -2.8129 C   0  0  0  0  0  4           0  0  0
    3.8199    1.2180   -3.6322 C   0  0  0  0  0  4           0  0  0
    4.4127    1.2180   -5.0386 C   0  0  0  0  0  4           0  0  0
    3.9948    2.4360   -5.8580 C   0  0  0  0  0  4           0  0  0
    4.5876    2.4360   -7.2644 C   0  0  0  0  0  4           0  0  0
    4.1697    3.6540   -8.0837 C   0  0  0  0  0  4           0  0  0
    4.7625    3.6540   -9.4902 C   0  0  0  0  0  4           0  0  0
    4.3453    4.8687  -10.3060 C   0  0  0  0  0  4           0  0  0
  1  8  1  0     0  0
  2 17  2  0     0  0
  3 18  2  0     0  0
  4 19  2  0     0  0
  5  6  1  0     0  0
  5  9  1  0     0  0
  6 10  2  0     0  0
  7 11  1  0     0  0
  7 17  1  0     0  0
  7 18  1  0     0  0
  8 13  1  0     0  0
  8 14  2  0     0  0
  9 12  2  0     0  0
  9 17  1  0     0  0
 10 12  1  0     0  0
 10 19  1  0     0  0
 11 13  2  0     0  0
 11 15  1  0     0  0
 12 18  1  0     0  0
 14 16  1  0     0  0
 15 16  2  0     0  0
 19 20  1  0     0  0
 20 21  1  0     0  0
 21 22  1  0     0  0
 22 23  1  0     0  0
 23 24  1  0     0  0
 24 25  1  0     0  0
 25 26  1  0     0  0
 26 27  1  0     0  0
 27 28  1  0     0  0
 28 29  1  0     0  0
 29 30  1  0     0  0
 30 31  1  0     0  0
 31 32  1  0     0  0
 32 33  1  0     0  0
 33 34  1  0     0  0
 34 35  1  0     0  0
 35 36  1  0     0  0
M  END
> <standard_type>
pIC50

> <# Confs.>
25

> <canonical_smiles>
O=C1C2=C(C(C(CCCCCCCCCCCCCCCCC)=O)=NN2)C(N1C3=CC(Br)=CC=C3)=O

> <standard_relation>
=

> <predicted_activity_value>
6.090443970758825

> <actual_activity_value>
5.995678626217358

> <Compound>
24

> <publication_ID>
nan

> <standard_units>
nM

> hash
880138860404581231

$$$$
24_
XXILIB    08252103423D 0   0.00000     0.00000

 36 38  0     1  0            999 V2000
  -15.3176   -1.4942    8.2729 Br  0  0  0  0  0  1           0  0  0
  -10.3901   -0.0565    8.5852 O   0  0  0  0  0  2           0  0  0
  -10.0032   -0.0204    3.9002 O   0  0  0  0  0  2           0  0  0
   -6.9384   -0.0000    3.1127 O   0  0  0  0  0  2           0  0  0
   -7.3651   -0.0289    7.5724 N   0  0  0  0  0  3           0  0  0
   -6.4030   -0.0124    6.6185 N   0  0  0  0  0  3           0  0  0
  -10.6496   -0.0445    6.2064 N   0  0  2  0  0  3           0  0  0
  -14.2587   -0.6650    6.9414 C   0  0  0  0  0  4           0  0  0
   -8.6005   -0.0355    7.0393 C   0  0  0  0  0  4           0  0  0
   -7.0792   -0.0127    5.4470 C   0  0  0  0  0  4           0  0  0
  -12.0661   -0.0508    6.0887 C   0  0  0  0  0  4           0  0  0
   -8.4590   -0.0251    5.6867 C   0  0  0  0  0  4           0  0  0
  -12.8666   -0.6637    7.0674 C   0  0  0  0  0  4           0  0  0
  -14.8756   -0.0618    5.8485 C   0  0  0  0  0  4           0  0  0
  -12.6988    0.5543    4.9901 C   0  0  0  0  0  4           0  0  0
  -14.0915    0.5477    4.8734 C   0  0  0  0  0  4           0  0  0
   -9.9662   -0.0480    7.4408 C   0  0  0  0  0  4           0  0  0
   -9.7710   -0.0299    5.0979 C   0  0  0  0  0  4           0  0  0
   -6.3442   -0.0000    4.1907 C   0  0  0  0  0  4           0  0  0
   -4.8306    0.0000    4.2191 C   0  0  0  0  0  4           0  0  0
   -4.2380   -0.0000    2.8129 C   0  0  0  0  0  4           0  0  0
   -2.7117    0.0000    2.8129 C   0  0  0  0  0  4           0  0  0
   -2.1190   -0.0000    1.4064 C   0  0  0  0  0  4           0  0  0
   -0.5927    0.0000    1.4064 C   0  0  0  0  0  4           0  0  0
    0.0000   -0.0000    0.0000 C   0  0  0  0  0  4           0  0  0
    1.5260   -0.0000    0.0000 C   0  0  0  0  0  4           0  0  0
    2.1188    0.0000   -1.4064 C   0  0  0  0  0  4           0  0  0
    1.7009    1.2180   -2.2258 C   0  0  0  0  0  4           0  0  0
    2.2937    1.2180   -3.6322 C   0  0  0  0  0  4           0  0  0
    1.8759    2.4360   -4.4515 C   0  0  0  0  0  4           0  0  0
    2.4686    2.4360   -5.8580 C   0  0  0  0  0  4           0  0  0
    2.0508    3.6540   -6.6773 C   0  0  0  0  0  4           0  0  0
    2.6435    3.6540   -8.0837 C   0  0  0  0  0  4           0  0  0
    2.2257    4.8721   -8.9030 C   0  0  0  0  0  4           0  0  0
    2.8184    4.8721  -10.3095 C   0  0  0  0  0  4           0  0  0
    2.4012    6.0867  -11.1253 C   0  0  0  0  0  4           0  0  0
  1  8  1  0     0  0
  2 17  2  0     0  0
  3 18  2  0     0  0
  4 19  2  0     0  0
  5  6  1  0     0  0
  5  9  1  0     0  0
  6 10  2  0     0  0
  7 11  1  0     0  0
  7 17  1  0     0  0
  7 18  1  0     0  0
  8 13  1  0     0  0
  8 14  2  0     0  0
  9 12  2  0     0  0
  9 17  1  0     0  0
 10 12  1  0     0  0
 10 19  1  0     0  0
 11 13  2  0     0  0
 11 15  1  0     0  0
 12 18  1  0     0  0
 14 16  1  0     0  0
 15 16  2  0     0  0
 19 20  1  0     0  0
 20 21  1  0     0  0
 21 22  1  0     0  0
 22 23  1  0     0  0
 23 24  1  0     0  0
 24 25  1  0     0  0
 25 26  1  0     0  0
 26 27  1  0     0  0
 27 28  1  0     0  0
 28 29  1  0     0  0
 29 30  1  0     0  0
 30 31  1  0     0  0
 31 32  1  0     0  0
 32 33  1  0     0  0
 33 34  1  0     0  0
 34 35  1  0     0  0
 35 36  1  0     0  0
M  END
> <standard_type>
pIC50

> <# Confs.>
25

> <canonical_smiles>
O=C1C2=C(C(C(CCCCCCCCCCCCCCCCC)=O)=NN2)C(N1C3=CC(Br)=CC=C3)=O

> <standard_relation>
=

> <predicted_activity_value>
6.090443970758825

> <actual_activity_value>
5.995678626217358

> <Compound>
24

> <publication_ID>
nan

> <standard_units>
nM

> hash
880138860404581231

$$$$
24_
XXILIB    08252103423D 0   0.00000     0.00000

 36 38  0     1  0            999 V2000
  -15.3176   -1.4942    8.2729 Br  0  0  0  0  0  1           0  0  0
  -10.3901   -0.0565    8.5852 O   0  0  0  0  0  2           0  0  0
  -10.0032   -0.0204    3.9002 O   0  0  0  0  0  2           0  0  0
   -6.9384   -0.0000    3.1127 O   0  0  0  0  0  2           0  0  0
   -7.3651   -0.0289    7.5724 N   0  0  0  0  0  3           0  0  0
   -6.4030   -0.0124    6.6185 N   0  0  0  0  0  3           0  0  0
  -10.6496   -0.0445    6.2064 N   0  0  2  0  0  3           0  0  0
  -14.2587   -0.6650    6.9414 C   0  0  0  0  0  4           0  0  0
   -8.6005   -0.0355    7.0393 C   0  0  0  0  0  4           0  0  0
   -7.0792   -0.0127    5.4470 C   0  0  0  0  0  4           0  0  0
  -12.0661   -0.0508    6.0887 C   0  0  0  0  0  4           0  0  0
   -8.4590   -0.0251    5.6867 C   0  0  0  0  0  4           0  0  0
  -12.8666   -0.6637    7.0674 C   0  0  0  0  0  4           0  0  0
  -14.8756   -0.0618    5.8485 C   0  0  0  0  0  4           0  0  0
  -12.6988    0.5543    4.9901 C   0  0  0  0  0  4           0  0  0
  -14.0915    0.5477    4.8734 C   0  0  0  0  0  4           0  0  0
   -9.9662   -0.0480    7.4408 C   0  0  0  0  0  4           0  0  0
   -9.7710   -0.0299    5.0979 C   0  0  0  0  0  4           0  0  0
   -6.3442   -0.0000    4.1907 C   0  0  0  0  0  4           0  0  0
   -4.8306    0.0000    4.2191 C   0  0  0  0  0  4           0  0  0
   -4.2380   -0.0000    2.8129 C   0  0  0  0  0  4           0  0  0
   -2.7117    0.0000    2.8129 C   0  0  0  0  0  4           0  0  0
   -2.1190   -0.0000    1.4064 C   0  0  0  0  0  4           0  0  0
   -0.5927    0.0000    1.4064 C   0  0  0  0  0  4           0  0  0
    0.0000   -0.0000    0.0000 C   0  0  0  0  0  4           0  0  0
    1.5260    0.0000   -0.0000 C   0  0  0  0  0  4           0  0  0
    2.1188   -1.2180    0.7032 C   0  0  0  0  0  4           0  0  0
    3.6450   -1.2180    0.7032 C   0  0  0  0  0  4           0  0  0
    4.2378   -2.4360    1.4064 C   0  0  0  0  0  4           0  0  0
    5.7640   -2.4360    1.4064 C   0  0  0  0  0  4           0  0  0
    6.3567   -3.6540    2.1097 C   0  0  0  0  0  4           0  0  0
    7.8830   -3.6540    2.1097 C   0  0  0  0  0  4           0  0  0
    8.4757   -4.8721    2.8129 C   0  0  0  0  0  4           0  0  0
   10.0019   -4.8721    2.8129 C   0  0  0  0  0  4           0  0  0
   10.5947   -6.0901    3.5161 C   0  0  0  0  0  4           0  0  0
   12.1162   -6.0890    3.5155 C   0  0  0  0  0  4           0  0  0
  1  8  1  0     0  0
  2 17  2  0     0  0
  3 18  2  0     0  0
  4 19  2  0     0  0
  5  6  1  0     0  0
  5  9  1  0     0  0
  6 10  2  0     0  0
  7 11  1  0     0  0
  7 17  1  0     0  0
  7 18  1  0     0  0
  8 13  1  0     0  0
  8 14  2  0     0  0
  9 12  2  0     0  0
  9 17  1  0     0  0
 10 12  1  0     0  0
 10 19  1  0     0  0
 11 13  2  0     0  0
 11 15  1  0     0  0
 12 18  1  0     0  0
 14 16  1  0     0  0
 15 16  2  0     0  0
 19 20  1  0     0  0
 20 21  1  0     0  0
 21 22  1  0     0  0
 22 23  1  0     0  0
 23 24  1  0     0  0
 24 25  1  0     0  0
 25 26  1  0     0  0
 26 27  1  0     0  0
 27 28  1  0     0  0
 28 29  1  0     0  0
 29 30  1  0     0  0
 30 31  1  0     0  0
 31 32  1  0     0  0
 32 33  1  0     0  0
 33 34  1  0     0  0
 34 35  1  0     0  0
 35 36  1  0     0  0
M  END
> <standard_type>
pIC50

> <# Confs.>
25

> <canonical_smiles>
O=C1C2=C(C(C(CCCCCCCCCCCCCCCCC)=O)=NN2)C(N1C3=CC(Br)=CC=C3)=O

> <standard_relation>
=

> <predicted_activity_value>
6.090443970758825

> <actual_activity_value>
5.995678626217358

> <Compound>
24

> <publication_ID>
nan

> <standard_units>
nM

> hash
880138860404581231

$$$$
33_
XXILIB    08252103423D 0   0.00000     0.00000

 21 23  0     1  0            999 V2000
    1.3765    0.0000    0.0000 O   0  0  0  0  0  2           0  0  0
    1.1287    2.3612    3.3065 O   0  0  0  0  0  2           0  0  0
    3.5098   -2.2346    4.5210 O   0  0  0  0  0  2           0  0  0
    1.0392   -2.4087    3.3380 O   0  0  0  0  0  2           0  0  0
    3.6901    2.4557    4.2926 O   0  0  0  0  0  2           0  0  0
   -2.5358    0.0549    2.5112 N   0  0  0  0  0  3           0  0  0
    0.0000    0.0000    0.0000 C   0  0  0  0  0  4           0  0  0
   -2.0892    0.0163    1.2121 C   0  0  0  0  0  4           0  0  0
   -1.4785    0.0550    3.3746 C   0  0  0  0  0  4           0  0  0
   -0.6880    0.0000    1.2440 C   0  0  0  0  0  4           0  0  0
   -0.3129    0.0070    2.6359 C   0  0  0  0  0  4           0  0  0
   -0.7438   -0.0400   -1.1952 C   0  0  0  0  0  4           0  0  0
   -2.8327   -0.0014    0.0269 C   0  0  0  0  0  4           0  0  0
   -2.1350   -0.0384   -1.1775 C   0  0  0  0  0  4           0  0  0
    1.6737    1.2807    3.5205 C   0  0  0  0  0  4           0  0  0
    2.9637   -1.1850    4.1955 C   0  0  0  0  0  4           0  0  0
    1.6146   -1.1725    3.5759 C   0  0  0  0  0  4           0  0  0
    3.0442    1.2537    4.0857 C   0  0  0  0  0  4           0  0  0
    1.9637    0.0000   -1.2987 C   0  0  0  0  0  4           0  0  0
    0.9886   -0.0276    3.2403 C   0  0  0  0  0  4           0  0  0
    3.6394    0.1047    4.4012 C   0  0  0  0  0  4           0  0  0
  1  7  1  0     0  0
  1 19  1  0     0  0
  2 15  2  0     0  0
  3 16  2  0     0  0
  4 17  1  0     0  0
  5 18  1  0     0  0
  6  8  1  0     0  0
  6  9  1  0     0  0
  7 10  2  0     0  0
  7 12  1  0     0  0
  8 10  1  0     0  0
  8 13  2  0     0  0
  9 11  2  0     0  0
 10 11  1  0     0  0
 11 20  1  0     0  0
 12 14  2  0     0  0
 13 14  1  0     0  0
 15 18  1  0     0  0
 15 20  1  0     0  0
 16 17  1  0     0  0
 16 21  1  0     0  0
 17 20  2  0     0  0
 18 21  2  0     0  0
M  END
> <standard_type>
pIC50

> <# Confs.>
2

> <canonical_smiles>
OC1=C(C(C(O)=CC1=O)=O)C2=CNC3=CC=CC(OC)=C32

> <standard_relation>
=

> <predicted_activity_value>
5.34008379993015

> <actual_activity_value>
5.221848749616356

> <Compound>
33

> <publication_ID>
nan

> <standard_units>
nM

> hash
3291341419670588468

$$$$
33_
XXILIB    08252103423D 0   0.00000     0.00000

 21 23  0     1  0            999 V2000
    1.3765    0.0000    0.0000 O   0  0  0  0  0  2           0  0  0
    1.0252   -2.4210    3.2561 O   0  0  0  0  0  2           0  0  0
    3.6872    2.0408    4.3834 O   0  0  0  0  0  2           0  0  0
    1.1998    2.3466    3.2641 O   0  0  0  0  0  2           0  0  0
    3.4242   -2.6472    4.5734 O   0  0  0  0  0  2           0  0  0
   -2.5358    0.0549    2.5112 N   0  0  0  0  0  3           0  0  0
    0.0000    0.0000    0.0000 C   0  0  0  0  0  4           0  0  0
   -2.0892    0.0163    1.2121 C   0  0  0  0  0  4           0  0  0
   -1.4785    0.0550    3.3746 C   0  0  0  0  0  4           0  0  0
   -0.6880    0.0000    1.2440 C   0  0  0  0  0  4           0  0  0
   -0.3129    0.0070    2.6359 C   0  0  0  0  0  4           0  0  0
   -0.7438   -0.0400   -1.1952 C   0  0  0  0  0  4           0  0  0
   -2.8327   -0.0014    0.0269 C   0  0  0  0  0  4           0  0  0
   -2.1350   -0.0384   -1.1775 C   0  0  0  0  0  4           0  0  0
    1.5869   -1.3699    3.5559 C   0  0  0  0  0  4           0  0  0
    3.0410    1.0229    4.1553 C   0  0  0  0  0  4           0  0  0
    1.6982    1.0818    3.5248 C   0  0  0  0  0  4           0  0  0
    2.9026   -1.4143    4.2382 C   0  0  0  0  0  4           0  0  0
    1.9637    0.0000   -1.2987 C   0  0  0  0  0  4           0  0  0
    0.9886   -0.0276    3.2403 C   0  0  0  0  0  4           0  0  0
    3.5771   -0.2989    4.5123 C   0  0  0  0  0  4           0  0  0
  1  7  1  0     0  0
  1 19  1  0     0  0
  2 15  2  0     0  0
  3 16  2  0     0  0
  4 17  1  0     0  0
  5 18  1  0     0  0
  6  8  1  0     0  0
  6  9  1  0     0  0
  7 10  2  0     0  0
  7 12  1  0     0  0
  8 10  1  0     0  0
  8 13  2  0     0  0
  9 11  2  0     0  0
 10 11  1  0     0  0
 11 20  1  0     0  0
 12 14  2  0     0  0
 13 14  1  0     0  0
 15 18  1  0     0  0
 15 20  1  0     0  0
 16 17  1  0     0  0
 16 21  1  0     0  0
 17 20  2  0     0  0
 18 21  2  0     0  0
M  END
> <standard_type>
pIC50

> <# Confs.>
2

> <canonical_smiles>
OC1=C(C(C(O)=CC1=O)=O)C2=CNC3=CC=CC(OC)=C32

> <standard_relation>
=

> <predicted_activity_value>
5.34008379993015

> <actual_activity_value>
5.221848749616356

> <Compound>
33

> <publication_ID>
nan

> <standard_units>
nM

> hash
3291341419670588468

$$$$
38_
XXILIB    08252103423D 0   0.00000     0.00000

 22 24  0     1  0            999 V2000
   -9.9320   -0.0173   -2.8991 Cl  0  0  0  0  0  1           0  0  0
   -0.7011    0.0000    1.0053 O   0  0  0  0  0  2           0  0  0
   -3.4065   -0.0005   -4.9004 O   0  0  0  0  0  2           0  0  0
   -3.6629   -0.0095   -0.2068 O   0  0  0  0  0  2           0  0  0
    1.3622    0.0000    0.0000 O   0  0  0  0  0  2           0  0  0
   -0.5472    0.0005   -3.4836 N   0  0  0  0  0  3           0  0  0
    0.2754   -0.0009   -2.4071 N   0  0  0  0  0  3           0  0  0
   -3.9877   -0.0041   -2.5793 N   0  0  2  0  0  3           0  0  0
   -8.2131   -0.0155   -2.8067 C   0  0  0  0  0  4           0  0  0
   -1.8441   -0.0003   -3.1245 C   0  0  0  0  0  4           0  0  0
   -0.5545   -0.0010   -1.3391 C   0  0  0  0  0  4           0  0  0
   -5.4066   -0.0082   -2.6557 C   0  0  0  0  0  4           0  0  0
   -1.8887   -0.0013   -1.7653 C   0  0  0  0  0  4           0  0  0
   -7.4557   -0.0147   -3.9749 C   0  0  0  0  0  4           0  0  0
   -7.5858   -0.0134   -1.5639 C   0  0  0  0  0  4           0  0  0
   -6.0601   -0.0104   -3.8992 C   0  0  0  0  0  4           0  0  0
   -6.1902   -0.0102   -1.4895 C   0  0  0  0  0  4           0  0  0
    0.0000    0.0000   -0.0000 C   0  0  0  0  0  4           0  0  0
   -3.1424   -0.0020   -3.7090 C   0  0  0  0  0  4           0  0  0
   -3.2687   -0.0042   -1.3612 C   0  0  0  0  0  4           0  0  0
    1.9855    0.0000    1.2917 C   0  0  0  0  0  4           0  0  0
    3.4891   -0.0000    1.0979 C   0  0  0  0  0  4           0  0  0
  1  9  1  0     0  0
  2 18  2  0     0  0
  3 19  2  0     0  0
  4 20  2  0     0  0
  5 18  1  0     0  0
  5 21  1  0     0  0
  6  7  1  0     0  0
  6 10  1  0     0  0
  7 11  2  0     0  0
  8 12  1  0     0  0
  8 19  1  0     0  0
  8 20  1  0     0  0
  9 14  2  0     0  0
  9 15  1  0     0  0
 10 13  2  0     0  0
 10 19  1  0     0  0
 11 13  1  0     0  0
 11 18  1  0     0  0
 12 16  2  0     0  0
 12 17  1  0     0  0
 13 20  1  0     0  0
 14 16  1  0     0  0
 15 17  2  0     0  0
 21 22  1  0     0  0
M  END
> <standard_type>
pIC50

> <# Confs.>
25

> <canonical_smiles>
O=C1C2=C(C(C(OCC)=O)=NN2)C(N1C3=CC=C(Cl)C=C3)=O

> <standard_relation>
=

> <predicted_activity_value>
4.502379350218712

> <actual_activity_value>
4.42712839779952

> <Compound>
38

> <publication_ID>
nan

> <standard_units>
nM

> hash
2358240345664760092

$$$$
38_
XXILIB    08252103423D 0   0.00000     0.00000

 22 24  0     1  0            999 V2000
    4.9749    0.0086   -9.0720 Cl  0  0  0  0  0  1           0  0  0
   -0.7011   -0.0000    1.0053 O   0  0  0  0  0  2           0  0  0
   -1.0551   -0.0073   -5.8741 O   0  0  0  0  0  2           0  0  0
    2.4444    0.0074   -2.7358 O   0  0  0  0  0  2           0  0  0
    1.3622    0.0000    0.0000 O   0  0  0  0  0  2           0  0  0
   -2.0758   -0.0051   -2.8506 N   0  0  0  0  0  3           0  0  0
   -1.8965   -0.0019   -1.5077 N   0  0  0  0  0  3           0  0  0
    0.9969   -0.0012   -4.6434 N   0  0  2  0  0  3           0  0  0
    3.8245    0.0077   -7.7915 C   0  0  0  0  0  4           0  0  0
   -0.9047   -0.0045   -3.5135 C   0  0  0  0  0  4           0  0  0
   -0.5545   -0.0010   -1.3391 C   0  0  0  0  0  4           0  0  0
    1.9463    0.0021   -5.7005 C   0  0  0  0  0  4           0  0  0
    0.0878   -0.0019   -2.5838 C   0  0  0  0  0  4           0  0  0
    2.4629    0.0060   -8.0822 C   0  0  0  0  0  4           0  0  0
    4.2595    0.0076   -6.4690 C   0  0  0  0  0  4           0  0  0
    1.5294    0.0024   -7.0420 C   0  0  0  0  0  4           0  0  0
    3.3250    0.0051   -5.4297 C   0  0  0  0  0  4           0  0  0
    0.0000    0.0000   -0.0000 C   0  0  0  0  0  4           0  0  0
   -0.3997   -0.0043   -4.8448 C   0  0  0  0  0  4           0  0  0
    1.3494    0.0009   -3.2736 C   0  0  0  0  0  4           0  0  0
    1.9855    0.0000    1.2917 C   0  0  0  0  0  4           0  0  0
    3.4891   -0.0000    1.0979 C   0  0  0  0  0  4           0  0  0
  1  9  1  0     0  0
  2 18  2  0     0  0
  3 19  2  0     0  0
  4 20  2  0     0  0
  5 18  1  0     0  0
  5 21  1  0     0  0
  6  7  1  0     0  0
  6 10  1  0     0  0
  7 11  2  0     0  0
  8 12  1  0     0  0
  8 19  1  0     0  0
  8 20  1  0     0  0
  9 14  2  0     0  0
  9 15  1  0     0  0
 10 13  2  0     0  0
 10 19  1  0     0  0
 11 13  1  0     0  0
 11 18  1  0     0  0
 12 16  2  0     0  0
 12 17  1  0     0  0
 13 20  1  0     0  0
 14 16  1  0     0  0
 15 17  2  0     0  0
 21 22  1  0     0  0
M  END
> <standard_type>
pIC50

> <# Confs.>
25

> <canonical_smiles>
O=C1C2=C(C(C(OCC)=O)=NN2)C(N1C3=CC=C(Cl)C=C3)=O

> <standard_relation>
=

> <predicted_activity_value>
4.502379350218712

> <actual_activity_value>
4.42712839779952

> <Compound>
38

> <publication_ID>
nan

> <standard_units>
nM

> hash
2358240345664760092

$$$$
38_
XXILIB    08252103423D 0   0.00000     0.00000

 22 24  0     1  0            999 V2000
   -8.9264   -4.0492   -3.3126 Cl  0  0  0  0  0  1           0  0  0
   -0.7011   -0.0000    1.0053 O   0  0  0  0  0  2           0  0  0
   -3.2504   -0.6372   -4.9645 O   0  0  0  0  0  2           0  0  0
   -3.2495   -1.6610   -0.3768 O   0  0  0  0  0  2           0  0  0
    1.3622    0.0000   -0.0000 O   0  0  0  0  0  2           0  0  0
   -0.6510    0.4137   -3.4410 N   0  0  0  0  0  3           0  0  0
    0.1295    0.5867   -2.3471 N   0  0  0  0  0  3           0  0  0
   -3.6528   -1.3527   -2.7170 N   0  0  2  0  0  3           0  0  0
   -7.4006   -3.2711   -3.1408 C   0  0  0  0  0  4           0  0  0
   -1.7821   -0.2548   -3.1500 C   0  0  0  0  0  4           0  0  0
   -0.5545   -0.0010   -1.3391 C   0  0  0  0  0  4           0  0  0
   -4.9111   -1.9971   -2.8594 C   0  0  0  0  0  4           0  0  0
   -1.7563   -0.5361   -1.8198 C   0  0  0  0  0  4           0  0  0
   -6.7858   -2.6972   -4.2504 C   0  0  0  0  0  4           0  0  0
   -6.7867   -3.2172   -1.8925 C   0  0  0  0  0  4           0  0  0
   -5.5482   -2.0631   -4.1097 C   0  0  0  0  0  4           0  0  0
   -5.5486   -2.5838   -1.7533 C   0  0  0  0  0  4           0  0  0
    0.0000    0.0000    0.0000 C   0  0  0  0  0  4           0  0  0
   -2.9590   -0.7443   -3.7844 C   0  0  0  0  0  4           0  0  0
   -2.9578   -1.2535   -1.4891 C   0  0  0  0  0  4           0  0  0
    1.9855    0.0000    1.2917 C   0  0  0  0  0  4           0  0  0
    2.1936   -1.4384    1.7230 C   0  0  0  0  0  4           0  0  0
  1  9  1  0     0  0
  2 18  2  0     0  0
  3 19  2  0     0  0
  4 20  2  0     0  0
  5 18  1  0     0  0
  5 21  1  0     0  0
  6  7  1  0     0  0
  6 10  1  0     0  0
  7 11  2  0     0  0
  8 12  1  0     0  0
  8 19  1  0     0  0
  8 20  1  0     0  0
  9 14  2  0     0  0
  9 15  1  0     0  0
 10 13  2  0     0  0
 10 19  1  0     0  0
 11 13  1  0     0  0
 11 18  1  0     0  0
 12 16  2  0     0  0
 12 17  1  0     0  0
 13 20  1  0     0  0
 14 16  1  0     0  0
 15 17  2  0     0  0
 21 22  1  0     0  0
M  END
> <standard_type>
pIC50

> <# Confs.>
25

> <canonical_smiles>
O=C1C2=C(C(C(OCC)=O)=NN2)C(N1C3=CC=C(Cl)C=C3)=O

> <standard_relation>
=

> <predicted_activity_value>
4.502379350218712

> <actual_activity_value>
4.42712839779952

> <Compound>
38

> <publication_ID>
nan

> <standard_units>
nM

> hash
2358240345664760092

$$$$
38_
XXILIB    08252103423D 0   0.00000     0.00000

 22 24  0     1  0            999 V2000
   -8.9405    4.0180   -3.3126 Cl  0  0  0  0  0  1           0  0  0
   -0.7011    0.0000    1.0053 O   0  0  0  0  0  2           0  0  0
   -3.2476    0.6353   -4.9666 O   0  0  0  0  0  2           0  0  0
   -3.2581    1.6442   -0.3756 O   0  0  0  0  0  2           0  0  0
    1.3622    0.0000    0.0000 O   0  0  0  0  0  2           0  0  0
   -0.6482   -0.4135   -3.4415 N   0  0  0  0  0  3           0  0  0
    0.1303   -0.5887   -2.3466 N   0  0  0  0  0  3           0  0  0
   -3.6548    1.3449   -2.7181 N   0  0  2  0  0  3           0  0  0
   -7.4130    3.2433   -3.1405 C   0  0  0  0  0  4           0  0  0
   -1.7803    0.2536   -3.1511 C   0  0  0  0  0  4           0  0  0
   -0.5545   -0.0010   -1.3391 C   0  0  0  0  0  4           0  0  0
   -4.9169    1.9821   -2.8599 C   0  0  0  0  0  4           0  0  0
   -1.7563    0.5335   -1.8206 C   0  0  0  0  0  4           0  0  0
   -6.7968    2.6705   -4.2497 C   0  0  0  0  0  4           0  0  0
   -6.7980    3.1932   -1.8924 C   0  0  0  0  0  4           0  0  0
   -5.5552    2.0441   -4.1098 C   0  0  0  0  0  4           0  0  0
   -5.5570    2.5655   -1.7536 C   0  0  0  0  0  4           0  0  0
    0.0000    0.0000   -0.0000 C   0  0  0  0  0  4           0  0  0
   -2.9583    0.7400   -3.7858 C   0  0  0  0  0  4           0  0  0
   -2.9608    1.2457   -1.4896 C   0  0  0  0  0  4           0  0  0
    1.9855    0.0000    1.2917 C   0  0  0  0  0  4           0  0  0
    2.1936    1.4384    1.7230 C   0  0  0  0  0  4           0  0  0
  1  9  1  0     0  0
  2 18  2  0     0  0
  3 19  2  0     0  0
  4 20  2  0     0  0
  5 18  1  0     0  0
  5 21  1  0     0  0
  6  7  1  0     0  0
  6 10  1  0     0  0
  7 11  2  0     0  0
  8 12  1  0     0  0
  8 19  1  0     0  0
  8 20  1  0     0  0
  9 14  2  0     0  0
  9 15  1  0     0  0
 10 13  2  0     0  0
 10 19  1  0     0  0
 11 13  1  0     0  0
 11 18  1  0     0  0
 12 16  2  0     0  0
 12 17  1  0     0  0
 13 20  1  0     0  0
 14 16  1  0     0  0
 15 17  2  0     0  0
 21 22  1  0     0  0
M  END
> <standard_type>
pIC50

> <# Confs.>
25

> <canonical_smiles>
O=C1C2=C(C(C(OCC)=O)=NN2)C(N1C3=CC=C(Cl)C=C3)=O

> <standard_relation>
=

> <predicted_activity_value>
4.502379350218712

> <actual_activity_value>
4.42712839779952

> <Compound>
38

> <publication_ID>
nan

> <standard_units>
nM

> hash
2358240345664760092

$$$$
38_
XXILIB    08252103423D 0   0.00000     0.00000

 22 24  0     1  0            999 V2000
    3.9693    4.0405   -8.6585 Cl  0  0  0  0  0  1           0  0  0
   -0.7011   -0.0000    1.0053 O   0  0  0  0  0  2           0  0  0
   -1.2112    0.6294   -5.8099 O   0  0  0  0  0  2           0  0  0
    2.0309    1.6588   -2.5658 O   0  0  0  0  0  2           0  0  0
    1.3622    0.0000   -0.0000 O   0  0  0  0  0  2           0  0  0
   -1.9720   -0.4183   -2.8933 N   0  0  0  0  0  3           0  0  0
   -1.7507   -0.5896   -1.5677 N   0  0  0  0  0  3           0  0  0
    0.6619    1.3474   -4.5057 N   0  0  2  0  0  3           0  0  0
    3.0119    3.2634   -7.4573 C   0  0  0  0  0  4           0  0  0
   -0.9667    0.2500   -3.4880 C   0  0  0  0  0  4           0  0  0
   -0.5545   -0.0010   -1.3391 C   0  0  0  0  0  4           0  0  0
    1.4509    1.9910   -5.4968 C   0  0  0  0  0  4           0  0  0
   -0.0446    0.5330   -2.5294 C   0  0  0  0  0  4           0  0  0
    1.7930    2.6884   -7.8067 C   0  0  0  0  0  4           0  0  0
    3.4603    3.2114   -6.1404 C   0  0  0  0  0  4           0  0  0
    1.0175    2.0552   -6.8315 C   0  0  0  0  0  4           0  0  0
    2.6834    2.5788   -5.1659 C   0  0  0  0  0  4           0  0  0
    0.0000    0.0000   -0.0000 C   0  0  0  0  0  4           0  0  0
   -0.5831    0.7380   -4.7694 C   0  0  0  0  0  4           0  0  0
    1.0386    1.2501   -3.1458 C   0  0  0  0  0  4           0  0  0
    1.9855    0.0000    1.2917 C   0  0  0  0  0  4           0  0  0
    2.1936   -1.4384    1.7230 C   0  0  0  0  0  4           0  0  0
  1  9  1  0     0  0
  2 18  2  0     0  0
  3 19  2  0     0  0
  4 20  2  0     0  0
  5 18  1  0     0  0
  5 21  1  0     0  0
  6  7  1  0     0  0
  6 10  1  0     0  0
  7 11  2  0     0  0
  8 12  1  0     0  0
  8 19  1  0     0  0
  8 20  1  0     0  0
  9 14  2  0     0  0
  9 15  1  0     0  0
 10 13  2  0     0  0
 10 19  1  0     0  0
 11 13  1  0     0  0
 11 18  1  0     0  0
 12 16  2  0     0  0
 12 17  1  0     0  0
 13 20  1  0     0  0
 14 16  1  0     0  0
 15 17  2  0     0  0
 21 22  1  0     0  0
M  END
> <standard_type>
pIC50

> <# Confs.>
25

> <canonical_smiles>
O=C1C2=C(C(C(OCC)=O)=NN2)C(N1C3=CC=C(Cl)C=C3)=O

> <standard_relation>
=

> <predicted_activity_value>
4.502379350218712

> <actual_activity_value>
4.42712839779952

> <Compound>
38

> <publication_ID>
nan

> <standard_units>
nM

> hash
2358240345664760092

$$$$
38_
XXILIB    08252103423D 0   0.00000     0.00000

 22 24  0     1  0            999 V2000
    3.9833   -4.0268   -8.6584 Cl  0  0  0  0  0  1           0  0  0
   -0.7011   -0.0000    1.0053 O   0  0  0  0  0  2           0  0  0
   -1.2140   -0.6432   -5.8078 O   0  0  0  0  0  2           0  0  0
    2.0396   -1.6463   -2.5670 O   0  0  0  0  0  2           0  0  0
    1.3622    0.0000    0.0000 O   0  0  0  0  0  2           0  0  0
   -1.9748    0.4089   -2.8928 N   0  0  0  0  0  3           0  0  0
   -1.7514    0.5858   -1.5682 N   0  0  0  0  0  3           0  0  0
    0.6640   -1.3501   -4.5046 N   0  0  2  0  0  3           0  0  0
    3.0243   -3.2510   -7.4577 C   0  0  0  0  0  4           0  0  0
   -0.9685   -0.2584   -3.4869 C   0  0  0  0  0  4           0  0  0
   -0.5545   -0.0010   -1.3391 C   0  0  0  0  0  4           0  0  0
    1.4567   -1.9882   -5.4963 C   0  0  0  0  0  4           0  0  0
   -0.0446   -0.5366   -2.5286 C   0  0  0  0  0  4           0  0  0
    1.8040   -2.6793   -7.8074 C   0  0  0  0  0  4           0  0  0
    3.4717   -3.1990   -6.1404 C   0  0  0  0  0  4           0  0  0
    1.0245   -2.0520   -6.8314 C   0  0  0  0  0  4           0  0  0
    2.6918   -2.5706   -5.1656 C   0  0  0  0  0  4           0  0  0
    0.0000    0.0000    0.0000 C   0  0  0  0  0  4           0  0  0
   -0.5837   -0.7463   -4.7680 C   0  0  0  0  0  4           0  0  0
    1.0416   -1.2491   -3.1452 C   0  0  0  0  0  4           0  0  0
    1.9855    0.0000    1.2917 C   0  0  0  0  0  4           0  0  0
    2.1936    1.4384    1.7230 C   0  0  0  0  0  4           0  0  0
  1  9  1  0     0  0
  2 18  2  0     0  0
  3 19  2  0     0  0
  4 20  2  0     0  0
  5 18  1  0     0  0
  5 21  1  0     0  0
  6  7  1  0     0  0
  6 10  1  0     0  0
  7 11  2  0     0  0
  8 12  1  0     0  0
  8 19  1  0     0  0
  8 20  1  0     0  0
  9 14  2  0     0  0
  9 15  1  0     0  0
 10 13  2  0     0  0
 10 19  1  0     0  0
 11 13  1  0     0  0
 11 18  1  0     0  0
 12 16  2  0     0  0
 12 17  1  0     0  0
 13 20  1  0     0  0
 14 16  1  0     0  0
 15 17  2  0     0  0
 21 22  1  0     0  0
M  END
> <standard_type>
pIC50

> <# Confs.>
25

> <canonical_smiles>
O=C1C2=C(C(C(OCC)=O)=NN2)C(N1C3=CC=C(Cl)C=C3)=O

> <standard_relation>
=

> <predicted_activity_value>
4.502379350218712

> <actual_activity_value>
4.42712839779952

> <Compound>
38

> <publication_ID>
nan

> <standard_units>
nM

> hash
2358240345664760092

$$$$
38_
XXILIB    08252103423D 0   0.00000     0.00000

 22 24  0     1  0            999 V2000
    1.2595   -6.9834   -7.5304 Cl  0  0  0  0  0  1           0  0  0
   -0.7011   -0.0000    1.0053 O   0  0  0  0  0  2           0  0  0
   -1.6454   -1.1077   -5.6288 O   0  0  0  0  0  2           0  0  0
    0.9251   -2.8592   -2.1046 O   0  0  0  0  0  2           0  0  0
    1.3622    0.0000   -0.0000 O   0  0  0  0  0  2           0  0  0
   -1.6960    0.7127   -3.0084 N   0  0  0  0  0  3           0  0  0
   -1.3542    1.0163   -1.7330 N   0  0  0  0  0  3           0  0  0
   -0.2475   -2.3380   -4.1264 N   0  0  2  0  0  3           0  0  0
    0.8256   -5.6395   -6.5460 C   0  0  0  0  0  4           0  0  0
   -1.1411   -0.4437   -3.4153 C   0  0  0  0  0  4           0  0  0
   -0.5545   -0.0010   -1.3391 C   0  0  0  0  0  4           0  0  0
    0.1131   -3.4466   -4.9389 C   0  0  0  0  0  4           0  0  0
   -0.4063   -0.9280   -2.3785 C   0  0  0  0  0  4           0  0  0
    0.5632   -4.4051   -7.1339 C   0  0  0  0  0  4           0  0  0
    0.7373   -5.7919   -5.1650 C   0  0  0  0  0  4           0  0  0
    0.2083   -3.3150   -6.3342 C   0  0  0  0  0  4           0  0  0
    0.3832   -4.7009   -4.3664 C   0  0  0  0  0  4           0  0  0
    0.0000    0.0000    0.0000 C   0  0  0  0  0  4           0  0  0
   -1.0860   -1.2891   -4.5597 C   0  0  0  0  0  4           0  0  0
    0.1975   -2.1648   -2.7950 C   0  0  0  0  0  4           0  0  0
    1.9855    0.0000    1.2917 C   0  0  0  0  0  4           0  0  0
    2.1936   -1.4384    1.7230 C   0  0  0  0  0  4           0  0  0
  1  9  1  0     0  0
  2 18  2  0     0  0
  3 19  2  0     0  0
  4 20  2  0     0  0
  5 18  1  0     0  0
  5 21  1  0     0  0
  6  7  1  0     0  0
  6 10  1  0     0  0
  7 11  2  0     0  0
  8 12  1  0     0  0
  8 19  1  0     0  0
  8 20  1  0     0  0
  9 14  2  0     0  0
  9 15  1  0     0  0
 10 13  2  0     0  0
 10 19  1  0     0  0
 11 13  1  0     0  0
 11 18  1  0     0  0
 12 16  2  0     0  0
 12 17  1  0     0  0
 13 20  1  0     0  0
 14 16  1  0     0  0
 15 17  2  0     0  0
 21 22  1  0     0  0
M  END
> <standard_type>
pIC50

> <# Confs.>
25

> <canonical_smiles>
O=C1C2=C(C(C(OCC)=O)=NN2)C(N1C3=CC=C(Cl)C=C3)=O

> <standard_relation>
=

> <predicted_activity_value>
4.502379350218712

> <actual_activity_value>
4.42712839779952

> <Compound>
38

> <publication_ID>
nan

> <standard_units>
nM

> hash
2358240345664760092

$$$$
38_
XXILIB    08252103423D 0   0.00000     0.00000

 22 24  0     1  0            999 V2000
    1.2288    6.9912   -7.5283 Cl  0  0  0  0  0  1           0  0  0
   -0.7011    0.0000    1.0053 O   0  0  0  0  0  2           0  0  0
   -1.6405    1.0964   -5.6325 O   0  0  0  0  0  2           0  0  0
    0.9101    2.8655   -2.1025 O   0  0  0  0  0  2           0  0  0
    1.3622    0.0000    0.0000 O   0  0  0  0  0  2           0  0  0
   -1.6913   -0.7201   -3.0094 N   0  0  0  0  0  3           0  0  0
   -1.3529   -1.0196   -1.7321 N   0  0  0  0  0  3           0  0  0
   -0.2511    2.3342   -4.1283 N   0  0  2  0  0  3           0  0  0
    0.8028    5.6442   -6.5448 C   0  0  0  0  0  4           0  0  0
   -1.1380    0.4368   -3.4172 C   0  0  0  0  0  4           0  0  0
   -0.5545   -0.0010   -1.3391 C   0  0  0  0  0  4           0  0  0
    0.1031    3.4456   -4.9397 C   0  0  0  0  0  4           0  0  0
   -0.4064    0.9246   -2.3799 C   0  0  0  0  0  4           0  0  0
    0.7162    5.7937   -5.1634 C   0  0  0  0  0  4           0  0  0
    0.5449    4.4096   -7.1345 C   0  0  0  0  0  4           0  0  0
    0.3675    4.7002   -4.3657 C   0  0  0  0  0  4           0  0  0
    0.1974    3.3167   -6.3356 C   0  0  0  0  0  4           0  0  0
    0.0000    0.0000   -0.0000 C   0  0  0  0  0  4           0  0  0
   -1.0848    1.2817   -4.5620 C   0  0  0  0  0  4           0  0  0
    0.1923    2.1640   -2.7960 C   0  0  0  0  0  4           0  0  0
    1.9855    0.0000    1.2917 C   0  0  0  0  0  4           0  0  0
    2.1936    1.4384    1.7230 C   0  0  0  0  0  4           0  0  0
  1  9  1  0     0  0
  2 18  2  0     0  0
  3 19  2  0     0  0
  4 20  2  0     0  0
  5 18  1  0     0  0
  5 21  1  0     0  0
  6  7  1  0     0  0
  6 10  1  0     0  0
  7 11  2  0     0  0
  8 12  1  0     0  0
  8 19  1  0     0  0
  8 20  1  0     0  0
  9 14  2  0     0  0
  9 15  1  0     0  0
 10 13  2  0     0  0
 10 19  1  0     0  0
 11 13  1  0     0  0
 11 18  1  0     0  0
 12 16  2  0     0  0
 12 17  1  0     0  0
 13 20  1  0     0  0
 14 16  1  0     0  0
 15 17  2  0     0  0
 21 22  1  0     0  0
M  END
> <standard_type>
pIC50

> <# Confs.>
25

> <canonical_smiles>
O=C1C2=C(C(C(OCC)=O)=NN2)C(N1C3=CC=C(Cl)C=C3)=O

> <standard_relation>
=

> <predicted_activity_value>
4.502379350218712

> <actual_activity_value>
4.42712839779952

> <Compound>
38

> <publication_ID>
nan

> <standard_units>
nM

> hash
2358240345664760092

$$$$
38_
XXILIB    08252103423D 0   0.00000     0.00000

 22 24  0     1  0            999 V2000
    1.2648   -6.9797   -7.5330 Cl  0  0  0  0  0  1           0  0  0
   -0.7011   -0.0000    1.0053 O   0  0  0  0  0  2           0  0  0
   -1.6454   -1.1077   -5.6288 O   0  0  0  0  0  2           0  0  0
    0.9251   -2.8592   -2.1046 O   0  0  0  0  0  2           0  0  0
    1.3622    0.0000   -0.0000 O   0  0  0  0  0  2           0  0  0
   -1.6960    0.7127   -3.0084 N   0  0  0  0  0  3           0  0  0
   -1.3542    1.0163   -1.7330 N   0  0  0  0  0  3           0  0  0
   -0.2475   -2.3380   -4.1264 N   0  0  2  0  0  3           0  0  0
    0.8267   -5.6387   -6.5466 C   0  0  0  0  0  4           0  0  0
   -1.1411   -0.4437   -3.4153 C   0  0  0  0  0  4           0  0  0
   -0.5545   -0.0010   -1.3391 C   0  0  0  0  0  4           0  0  0
    0.1131   -3.4466   -4.9389 C   0  0  0  0  0  4           0  0  0
   -0.4063   -0.9280   -2.3785 C   0  0  0  0  0  4           0  0  0
    1.7024   -5.1852   -5.5637 C   0  0  0  0  0  4           0  0  0
   -0.4015   -5.0111   -6.7357 C   0  0  0  0  0  4           0  0  0
    1.3473   -4.0946   -4.7650 C   0  0  0  0  0  4           0  0  0
   -0.7559   -3.9213   -5.9356 C   0  0  0  0  0  4           0  0  0
    0.0000    0.0000    0.0000 C   0  0  0  0  0  4           0  0  0
   -1.0860   -1.2891   -4.5597 C   0  0  0  0  0  4           0  0  0
    0.1975   -2.1648   -2.7950 C   0  0  0  0  0  4           0  0  0
    1.9855    0.6458    1.1186 C   0  0  0  0  0  4           0  0  0
    2.1936   -0.3842    2.2114 C   0  0  0  0  0  4           0  0  0
  1  9  1  0     0  0
  2 18  2  0     0  0
  3 19  2  0     0  0
  4 20  2  0     0  0
  5 18  1  0     0  0
  5 21  1  0     0  0
  6  7  1  0     0  0
  6 10  1  0     0  0
  7 11  2  0     0  0
  8 12  1  0     0  0
  8 19  1  0     0  0
  8 20  1  0     0  0
  9 14  2  0     0  0
  9 15  1  0     0  0
 10 13  2  0     0  0
 10 19  1  0     0  0
 11 13  1  0     0  0
 11 18  1  0     0  0
 12 16  2  0     0  0
 12 17  1  0     0  0
 13 20  1  0     0  0
 14 16  1  0     0  0
 15 17  2  0     0  0
 21 22  1  0     0  0
M  END
> <standard_type>
pIC50

> <# Confs.>
25

> <canonical_smiles>
O=C1C2=C(C(C(OCC)=O)=NN2)C(N1C3=CC=C(Cl)C=C3)=O

> <standard_relation>
=

> <predicted_activity_value>
4.502379350218712

> <actual_activity_value>
4.42712839779952

> <Compound>
38

> <publication_ID>
nan

> <standard_units>
nM

> hash
2358240345664760092

$$$$
38_
XXILIB    08252103423D 0   0.00000     0.00000

 22 24  0     1  0            999 V2000
    1.2346    6.9880   -7.5302 Cl  0  0  0  0  0  1           0  0  0
   -0.7011    0.0000    1.0053 O   0  0  0  0  0  2           0  0  0
   -1.6405    1.0964   -5.6325 O   0  0  0  0  0  2           0  0  0
    0.9101    2.8655   -2.1025 O   0  0  0  0  0  2           0  0  0
    1.3622    0.0000    0.0000 O   0  0  0  0  0  2           0  0  0
   -1.6913   -0.7201   -3.0094 N   0  0  0  0  0  3           0  0  0
   -1.3529   -1.0196   -1.7321 N   0  0  0  0  0  3           0  0  0
   -0.2511    2.3342   -4.1283 N   0  0  2  0  0  3           0  0  0
    0.8040    5.6435   -6.5452 C   0  0  0  0  0  4           0  0  0
   -1.1380    0.4368   -3.4172 C   0  0  0  0  0  4           0  0  0
   -0.5545   -0.0010   -1.3391 C   0  0  0  0  0  4           0  0  0
    0.1031    3.4456   -4.9397 C   0  0  0  0  0  4           0  0  0
   -0.4064    0.9246   -2.3799 C   0  0  0  0  0  4           0  0  0
   -0.4217    5.0104   -6.7329 C   0  0  0  0  0  4           0  0  0
    1.6837    5.1926   -5.5649 C   0  0  0  0  0  4           0  0  0
   -0.7694    3.9171   -5.9346 C   0  0  0  0  0  4           0  0  0
    1.3343    4.0999   -4.7666 C   0  0  0  0  0  4           0  0  0
    0.0000    0.0000   -0.0000 C   0  0  0  0  0  4           0  0  0
   -1.0848    1.2817   -4.5620 C   0  0  0  0  0  4           0  0  0
    0.1923    2.1640   -2.7960 C   0  0  0  0  0  4           0  0  0
    1.9855   -0.6458    1.1186 C   0  0  0  0  0  4           0  0  0
    2.1936    0.3842    2.2114 C   0  0  0  0  0  4           0  0  0
  1  9  1  0     0  0
  2 18  2  0     0  0
  3 19  2  0     0  0
  4 20  2  0     0  0
  5 18  1  0     0  0
  5 21  1  0     0  0
  6  7  1  0     0  0
  6 10  1  0     0  0
  7 11  2  0     0  0
  8 12  1  0     0  0
  8 19  1  0     0  0
  8 20  1  0     0  0
  9 14  2  0     0  0
  9 15  1  0     0  0
 10 13  2  0     0  0
 10 19  1  0     0  0
 11 13  1  0     0  0
 11 18  1  0     0  0
 12 16  2  0     0  0
 12 17  1  0     0  0
 13 20  1  0     0  0
 14 16  1  0     0  0
 15 17  2  0     0  0
 21 22  1  0     0  0
M  END
> <standard_type>
pIC50

> <# Confs.>
25

> <canonical_smiles>
O=C1C2=C(C(C(OCC)=O)=NN2)C(N1C3=CC=C(Cl)C=C3)=O

> <standard_relation>
=

> <predicted_activity_value>
4.502379350218712

> <actual_activity_value>
4.42712839779952

> <Compound>
38

> <publication_ID>
nan

> <standard_units>
nM

> hash
2358240345664760092

$$$$
38_
XXILIB    08252103423D 0   0.00000     0.00000

 22 24  0     1  0            999 V2000
    1.2288    6.9912   -7.5283 Cl  0  0  0  0  0  1           0  0  0
   -0.7011    0.0000    1.0053 O   0  0  0  0  0  2           0  0  0
   -1.6405    1.0964   -5.6325 O   0  0  0  0  0  2           0  0  0
    0.9101    2.8655   -2.1025 O   0  0  0  0  0  2           0  0  0
    1.3622    0.0000    0.0000 O   0  0  0  0  0  2           0  0  0
   -1.6913   -0.7201   -3.0094 N   0  0  0  0  0  3           0  0  0
   -1.3529   -1.0196   -1.7321 N   0  0  0  0  0  3           0  0  0
   -0.2511    2.3342   -4.1283 N   0  0  2  0  0  3           0  0  0
    0.8028    5.6442   -6.5448 C   0  0  0  0  0  4           0  0  0
   -1.1380    0.4368   -3.4172 C   0  0  0  0  0  4           0  0  0
   -0.5545   -0.0010   -1.3391 C   0  0  0  0  0  4           0  0  0
    0.1031    3.4456   -4.9397 C   0  0  0  0  0  4           0  0  0
   -0.4064    0.9246   -2.3799 C   0  0  0  0  0  4           0  0  0
    0.7162    5.7937   -5.1634 C   0  0  0  0  0  4           0  0  0
    0.5449    4.4096   -7.1345 C   0  0  0  0  0  4           0  0  0
    0.3675    4.7002   -4.3657 C   0  0  0  0  0  4           0  0  0
    0.1974    3.3167   -6.3356 C   0  0  0  0  0  4           0  0  0
    0.0000    0.0000   -0.0000 C   0  0  0  0  0  4           0  0  0
   -1.0848    1.2817   -4.5620 C   0  0  0  0  0  4           0  0  0
    0.1923    2.1640   -2.7960 C   0  0  0  0  0  4           0  0  0
    1.9855   -0.6458    1.1186 C   0  0  0  0  0  4           0  0  0
    2.1936   -2.1072    0.7729 C   0  0  0  0  0  4           0  0  0
  1  9  1  0     0  0
  2 18  2  0     0  0
  3 19  2  0     0  0
  4 20  2  0     0  0
  5 18  1  0     0  0
  5 21  1  0     0  0
  6  7  1  0     0  0
  6 10  1  0     0  0
  7 11  2  0     0  0
  8 12  1  0     0  0
  8 19  1  0     0  0
  8 20  1  0     0  0
  9 14  2  0     0  0
  9 15  1  0     0  0
 10 13  2  0     0  0
 10 19  1  0     0  0
 11 13  1  0     0  0
 11 18  1  0     0  0
 12 16  2  0     0  0
 12 17  1  0     0  0
 13 20  1  0     0  0
 14 16  1  0     0  0
 15 17  2  0     0  0
 21 22  1  0     0  0
M  END
> <standard_type>
pIC50

> <# Confs.>
25

> <canonical_smiles>
O=C1C2=C(C(C(OCC)=O)=NN2)C(N1C3=CC=C(Cl)C=C3)=O

> <standard_relation>
=

> <predicted_activity_value>
4.502379350218712

> <actual_activity_value>
4.42712839779952

> <Compound>
38

> <publication_ID>
nan

> <standard_units>
nM

> hash
2358240345664760092

$$$$
38_
XXILIB    08252103423D 0   0.00000     0.00000

 22 24  0     1  0            999 V2000
    1.2595   -6.9834   -7.5304 Cl  0  0  0  0  0  1           0  0  0
   -0.7011   -0.0000    1.0053 O   0  0  0  0  0  2           0  0  0
   -1.6454   -1.1077   -5.6288 O   0  0  0  0  0  2           0  0  0
    0.9251   -2.8592   -2.1046 O   0  0  0  0  0  2           0  0  0
    1.3622    0.0000   -0.0000 O   0  0  0  0  0  2           0  0  0
   -1.6960    0.7127   -3.0084 N   0  0  0  0  0  3           0  0  0
   -1.3542    1.0163   -1.7330 N   0  0  0  0  0  3           0  0  0
   -0.2475   -2.3380   -4.1264 N   0  0  2  0  0  3           0  0  0
    0.8256   -5.6395   -6.5460 C   0  0  0  0  0  4           0  0  0
   -1.1411   -0.4437   -3.4153 C   0  0  0  0  0  4           0  0  0
   -0.5545   -0.0010   -1.3391 C   0  0  0  0  0  4           0  0  0
    0.1131   -3.4466   -4.9389 C   0  0  0  0  0  4           0  0  0
   -0.4063   -0.9280   -2.3785 C   0  0  0  0  0  4           0  0  0
    0.5632   -4.4051   -7.1339 C   0  0  0  0  0  4           0  0  0
    0.7373   -5.7919   -5.1650 C   0  0  0  0  0  4           0  0  0
    0.2083   -3.3150   -6.3342 C   0  0  0  0  0  4           0  0  0
    0.3832   -4.7009   -4.3664 C   0  0  0  0  0  4           0  0  0
    0.0000    0.0000    0.0000 C   0  0  0  0  0  4           0  0  0
   -1.0860   -1.2891   -4.5597 C   0  0  0  0  0  4           0  0  0
    0.1975   -2.1648   -2.7950 C   0  0  0  0  0  4           0  0  0
    1.9855    0.6458    1.1186 C   0  0  0  0  0  4           0  0  0
    2.1936    2.1072    0.7729 C   0  0  0  0  0  4           0  0  0
  1  9  1  0     0  0
  2 18  2  0     0  0
  3 19  2  0     0  0
  4 20  2  0     0  0
  5 18  1  0     0  0
  5 21  1  0     0  0
  6  7  1  0     0  0
  6 10  1  0     0  0
  7 11  2  0     0  0
  8 12  1  0     0  0
  8 19  1  0     0  0
  8 20  1  0     0  0
  9 14  2  0     0  0
  9 15  1  0     0  0
 10 13  2  0     0  0
 10 19  1  0     0  0
 11 13  1  0     0  0
 11 18  1  0     0  0
 12 16  2  0     0  0
 12 17  1  0     0  0
 13 20  1  0     0  0
 14 16  1  0     0  0
 15 17  2  0     0  0
 21 22  1  0     0  0
M  END
> <standard_type>
pIC50

> <# Confs.>
25

> <canonical_smiles>
O=C1C2=C(C(C(OCC)=O)=NN2)C(N1C3=CC=C(Cl)C=C3)=O

> <standard_relation>
=

> <predicted_activity_value>
4.502379350218712

> <actual_activity_value>
4.42712839779952

> <Compound>
38

> <publication_ID>
nan

> <standard_units>
nM

> hash
2358240345664760092

$$$$
38_
XXILIB    08252103423D 0   0.00000     0.00000

 22 24  0     1  0            999 V2000
   -9.9320   -0.0173   -2.8991 Cl  0  0  0  0  0  1           0  0  0
   -0.7011    0.0000    1.0053 O   0  0  0  0  0  2           0  0  0
   -3.4065   -0.0005   -4.9004 O   0  0  0  0  0  2           0  0  0
   -3.6629   -0.0095   -0.2068 O   0  0  0  0  0  2           0  0  0
    1.3622    0.0000    0.0000 O   0  0  0  0  0  2           0  0  0
   -0.5472    0.0005   -3.4836 N   0  0  0  0  0  3           0  0  0
    0.2754   -0.0009   -2.4071 N   0  0  0  0  0  3           0  0  0
   -3.9877   -0.0041   -2.5793 N   0  0  2  0  0  3           0  0  0
   -8.2131   -0.0155   -2.8067 C   0  0  0  0  0  4           0  0  0
   -1.8441   -0.0003   -3.1245 C   0  0  0  0  0  4           0  0  0
   -0.5545   -0.0010   -1.3391 C   0  0  0  0  0  4           0  0  0
   -5.4066   -0.0082   -2.6557 C   0  0  0  0  0  4           0  0  0
   -1.8887   -0.0013   -1.7653 C   0  0  0  0  0  4           0  0  0
   -7.4557   -0.0147   -3.9749 C   0  0  0  0  0  4           0  0  0
   -7.5858   -0.0134   -1.5639 C   0  0  0  0  0  4           0  0  0
   -6.0601   -0.0104   -3.8992 C   0  0  0  0  0  4           0  0  0
   -6.1902   -0.0102   -1.4895 C   0  0  0  0  0  4           0  0  0
    0.0000    0.0000   -0.0000 C   0  0  0  0  0  4           0  0  0
   -3.1424   -0.0020   -3.7090 C   0  0  0  0  0  4           0  0  0
   -3.2687   -0.0042   -1.3612 C   0  0  0  0  0  4           0  0  0
    1.9855   -1.1186    0.6458 C   0  0  0  0  0  4           0  0  0
    2.1936   -2.2114   -0.3842 C   0  0  0  0  0  4           0  0  0
  1  9  1  0     0  0
  2 18  2  0     0  0
  3 19  2  0     0  0
  4 20  2  0     0  0
  5 18  1  0     0  0
  5 21  1  0     0  0
  6  7  1  0     0  0
  6 10  1  0     0  0
  7 11  2  0     0  0
  8 12  1  0     0  0
  8 19  1  0     0  0
  8 20  1  0     0  0
  9 14  2  0     0  0
  9 15  1  0     0  0
 10 13  2  0     0  0
 10 19  1  0     0  0
 11 13  1  0     0  0
 11 18  1  0     0  0
 12 16  2  0     0  0
 12 17  1  0     0  0
 13 20  1  0     0  0
 14 16  1  0     0  0
 15 17  2  0     0  0
 21 22  1  0     0  0
M  END
> <standard_type>
pIC50

> <# Confs.>
25

> <canonical_smiles>
O=C1C2=C(C(C(OCC)=O)=NN2)C(N1C3=CC=C(Cl)C=C3)=O

> <standard_relation>
=

> <predicted_activity_value>
4.502379350218712

> <actual_activity_value>
4.42712839779952

> <Compound>
38

> <publication_ID>
nan

> <standard_units>
nM

> hash
2358240345664760092

$$$$
38_
XXILIB    08252103423D 0   0.00000     0.00000

 22 24  0     1  0            999 V2000
   -9.9320   -0.0173   -2.8991 Cl  0  0  0  0  0  1           0  0  0
   -0.7011    0.0000    1.0053 O   0  0  0  0  0  2           0  0  0
   -3.4065   -0.0005   -4.9004 O   0  0  0  0  0  2           0  0  0
   -3.6629   -0.0095   -0.2068 O   0  0  0  0  0  2           0  0  0
    1.3622    0.0000   -0.0000 O   0  0  0  0  0  2           0  0  0
   -0.5472    0.0005   -3.4836 N   0  0  0  0  0  3           0  0  0
    0.2754   -0.0009   -2.4071 N   0  0  0  0  0  3           0  0  0
   -3.9877   -0.0041   -2.5793 N   0  0  2  0  0  3           0  0  0
   -8.2131   -0.0155   -2.8067 C   0  0  0  0  0  4           0  0  0
   -1.8441   -0.0003   -3.1245 C   0  0  0  0  0  4           0  0  0
   -0.5545   -0.0010   -1.3391 C   0  0  0  0  0  4           0  0  0
   -5.4066   -0.0082   -2.6557 C   0  0  0  0  0  4           0  0  0
   -1.8887   -0.0013   -1.7653 C   0  0  0  0  0  4           0  0  0
   -7.4557   -0.0147   -3.9749 C   0  0  0  0  0  4           0  0  0
   -7.5858   -0.0134   -1.5639 C   0  0  0  0  0  4           0  0  0
   -6.0601   -0.0104   -3.8992 C   0  0  0  0  0  4           0  0  0
   -6.1902   -0.0102   -1.4895 C   0  0  0  0  0  4           0  0  0
    0.0000    0.0000   -0.0000 C   0  0  0  0  0  4           0  0  0
   -3.1424   -0.0020   -3.7090 C   0  0  0  0  0  4           0  0  0
   -3.2687   -0.0042   -1.3612 C   0  0  0  0  0  4           0  0  0
    1.9855    1.1186    0.6458 C   0  0  0  0  0  4           0  0  0
    2.1936    2.2114   -0.3842 C   0  0  0  0  0  4           0  0  0
  1  9  1  0     0  0
  2 18  2  0     0  0
  3 19  2  0     0  0
  4 20  2  0     0  0
  5 18  1  0     0  0
  5 21  1  0     0  0
  6  7  1  0     0  0
  6 10  1  0     0  0
  7 11  2  0     0  0
  8 12  1  0     0  0
  8 19  1  0     0  0
  8 20  1  0     0  0
  9 14  2  0     0  0
  9 15  1  0     0  0
 10 13  2  0     0  0
 10 19  1  0     0  0
 11 13  1  0     0  0
 11 18  1  0     0  0
 12 16  2  0     0  0
 12 17  1  0     0  0
 13 20  1  0     0  0
 14 16  1  0     0  0
 15 17  2  0     0  0
 21 22  1  0     0  0
M  END
> <standard_type>
pIC50

> <# Confs.>
25

> <canonical_smiles>
O=C1C2=C(C(C(OCC)=O)=NN2)C(N1C3=CC=C(Cl)C=C3)=O

> <standard_relation>
=

> <predicted_activity_value>
4.502379350218712

> <actual_activity_value>
4.42712839779952

> <Compound>
38

> <publication_ID>
nan

> <standard_units>
nM

> hash
2358240345664760092

$$$$
38_
XXILIB    08252103423D 0   0.00000     0.00000

 22 24  0     1  0            999 V2000
   -9.9322   -0.0195   -2.8958 Cl  0  0  0  0  0  1           0  0  0
   -0.7011    0.0000    1.0053 O   0  0  0  0  0  2           0  0  0
   -3.4065   -0.0005   -4.9004 O   0  0  0  0  0  2           0  0  0
   -3.6629   -0.0095   -0.2068 O   0  0  0  0  0  2           0  0  0
    1.3622    0.0000   -0.0000 O   0  0  0  0  0  2           0  0  0
   -0.5472    0.0005   -3.4836 N   0  0  0  0  0  3           0  0  0
    0.2754   -0.0009   -2.4071 N   0  0  0  0  0  3           0  0  0
   -3.9877   -0.0041   -2.5793 N   0  0  2  0  0  3           0  0  0
   -8.2132   -0.0160   -2.8060 C   0  0  0  0  0  4           0  0  0
   -1.8441   -0.0003   -3.1245 C   0  0  0  0  0  4           0  0  0
   -0.5545   -0.0010   -1.3391 C   0  0  0  0  0  4           0  0  0
   -5.4066   -0.0082   -2.6557 C   0  0  0  0  0  4           0  0  0
   -1.8887   -0.0013   -1.7653 C   0  0  0  0  0  4           0  0  0
   -7.4912    1.0309   -3.3727 C   0  0  0  0  0  4           0  0  0
   -7.5504   -1.0595   -2.1658 C   0  0  0  0  0  4           0  0  0
   -6.0955    1.0346   -3.2971 C   0  0  0  0  0  4           0  0  0
   -6.1547   -1.0552   -2.0917 C   0  0  0  0  0  4           0  0  0
    0.0000    0.0000   -0.0000 C   0  0  0  0  0  4           0  0  0
   -3.1424   -0.0020   -3.7090 C   0  0  0  0  0  4           0  0  0
   -3.2687   -0.0042   -1.3612 C   0  0  0  0  0  4           0  0  0
    1.9855    0.0000    1.2917 C   0  0  0  0  0  4           0  0  0
    2.1936   -1.4384    1.7230 C   0  0  0  0  0  4           0  0  0
  1  9  1  0     0  0
  2 18  2  0     0  0
  3 19  2  0     0  0
  4 20  2  0     0  0
  5 18  1  0     0  0
  5 21  1  0     0  0
  6  7  1  0     0  0
  6 10  1  0     0  0
  7 11  2  0     0  0
  8 12  1  0     0  0
  8 19  1  0     0  0
  8 20  1  0     0  0
  9 14  2  0     0  0
  9 15  1  0     0  0
 10 13  2  0     0  0
 10 19  1  0     0  0
 11 13  1  0     0  0
 11 18  1  0     0  0
 12 16  2  0     0  0
 12 17  1  0     0  0
 13 20  1  0     0  0
 14 16  1  0     0  0
 15 17  2  0     0  0
 21 22  1  0     0  0
M  END
> <standard_type>
pIC50

> <# Confs.>
25

> <canonical_smiles>
O=C1C2=C(C(C(OCC)=O)=NN2)C(N1C3=CC=C(Cl)C=C3)=O

> <standard_relation>
=

> <predicted_activity_value>
4.502379350218712

> <actual_activity_value>
4.42712839779952

> <Compound>
38

> <publication_ID>
nan

> <standard_units>
nM

> hash
2358240345664760092

$$$$
38_
XXILIB    08252103423D 0   0.00000     0.00000

 22 24  0     1  0            999 V2000
   -9.9318   -0.0191   -2.9027 Cl  0  0  0  0  0  1           0  0  0
   -0.7011    0.0000    1.0053 O   0  0  0  0  0  2           0  0  0
   -3.4065   -0.0005   -4.9004 O   0  0  0  0  0  2           0  0  0
   -3.6629   -0.0095   -0.2068 O   0  0  0  0  0  2           0  0  0
    1.3622    0.0000    0.0000 O   0  0  0  0  0  2           0  0  0
   -0.5472    0.0005   -3.4836 N   0  0  0  0  0  3           0  0  0
    0.2754   -0.0009   -2.4071 N   0  0  0  0  0  3           0  0  0
   -3.9877   -0.0041   -2.5793 N   0  0  2  0  0  3           0  0  0
   -8.2131   -0.0158   -2.8075 C   0  0  0  0  0  4           0  0  0
   -1.8441   -0.0003   -3.1245 C   0  0  0  0  0  4           0  0  0
   -0.5545   -0.0010   -1.3391 C   0  0  0  0  0  4           0  0  0
   -5.4066   -0.0082   -2.6557 C   0  0  0  0  0  4           0  0  0
   -1.8887   -0.0013   -1.7653 C   0  0  0  0  0  4           0  0  0
   -7.4852   -1.0599   -3.3717 C   0  0  0  0  0  4           0  0  0
   -7.5564    1.0318   -2.1676 C   0  0  0  0  0  4           0  0  0
   -6.0895   -1.0553   -3.2965 C   0  0  0  0  0  4           0  0  0
   -6.1607    1.0348   -2.0922 C   0  0  0  0  0  4           0  0  0
    0.0000    0.0000   -0.0000 C   0  0  0  0  0  4           0  0  0
   -3.1424   -0.0020   -3.7090 C   0  0  0  0  0  4           0  0  0
   -3.2687   -0.0042   -1.3612 C   0  0  0  0  0  4           0  0  0
    1.9855    0.0000    1.2917 C   0  0  0  0  0  4           0  0  0
    3.3155   -0.7192    1.1817 C   0  0  0  0  0  4           0  0  0
  1  9  1  0     0  0
  2 18  2  0     0  0
  3 19  2  0     0  0
  4 20  2  0     0  0
  5 18  1  0     0  0
  5 21  1  0     0  0
  6  7  1  0     0  0
  6 10  1  0     0  0
  7 11  2  0     0  0
  8 12  1  0     0  0
  8 19  1  0     0  0
  8 20  1  0     0  0
  9 14  2  0     0  0
  9 15  1  0     0  0
 10 13  2  0     0  0
 10 19  1  0     0  0
 11 13  1  0     0  0
 11 18  1  0     0  0
 12 16  2  0     0  0
 12 17  1  0     0  0
 13 20  1  0     0  0
 14 16  1  0     0  0
 15 17  2  0     0  0
 21 22  1  0     0  0
M  END
> <standard_type>
pIC50

> <# Confs.>
25

> <canonical_smiles>
O=C1C2=C(C(C(OCC)=O)=NN2)C(N1C3=CC=C(Cl)C=C3)=O

> <standard_relation>
=

> <predicted_activity_value>
4.502379350218712

> <actual_activity_value>
4.42712839779952

> <Compound>
38

> <publication_ID>
nan

> <standard_units>
nM

> hash
2358240345664760092

$$$$
38_
XXILIB    08252103423D 0   0.00000     0.00000

 22 24  0     1  0            999 V2000
   -9.9322   -0.0195   -2.8958 Cl  0  0  0  0  0  1           0  0  0
   -0.7011    0.0000    1.0053 O   0  0  0  0  0  2           0  0  0
   -3.4065   -0.0005   -4.9004 O   0  0  0  0  0  2           0  0  0
   -3.6629   -0.0095   -0.2068 O   0  0  0  0  0  2           0  0  0
    1.3622    0.0000    0.0000 O   0  0  0  0  0  2           0  0  0
   -0.5472    0.0005   -3.4836 N   0  0  0  0  0  3           0  0  0
    0.2754   -0.0009   -2.4071 N   0  0  0  0  0  3           0  0  0
   -3.9877   -0.0041   -2.5793 N   0  0  2  0  0  3           0  0  0
   -8.2132   -0.0160   -2.8060 C   0  0  0  0  0  4           0  0  0
   -1.8441   -0.0003   -3.1245 C   0  0  0  0  0  4           0  0  0
   -0.5545   -0.0010   -1.3391 C   0  0  0  0  0  4           0  0  0
   -5.4066   -0.0082   -2.6557 C   0  0  0  0  0  4           0  0  0
   -1.8887   -0.0013   -1.7653 C   0  0  0  0  0  4           0  0  0
   -7.4912    1.0309   -3.3727 C   0  0  0  0  0  4           0  0  0
   -7.5504   -1.0595   -2.1658 C   0  0  0  0  0  4           0  0  0
   -6.0955    1.0346   -3.2971 C   0  0  0  0  0  4           0  0  0
   -6.1547   -1.0552   -2.0917 C   0  0  0  0  0  4           0  0  0
    0.0000    0.0000   -0.0000 C   0  0  0  0  0  4           0  0  0
   -3.1424   -0.0020   -3.7090 C   0  0  0  0  0  4           0  0  0
   -3.2687   -0.0042   -1.3612 C   0  0  0  0  0  4           0  0  0
    1.9855    0.0000    1.2917 C   0  0  0  0  0  4           0  0  0
    2.1936    1.4384    1.7230 C   0  0  0  0  0  4           0  0  0
  1  9  1  0     0  0
  2 18  2  0     0  0
  3 19  2  0     0  0
  4 20  2  0     0  0
  5 18  1  0     0  0
  5 21  1  0     0  0
  6  7  1  0     0  0
  6 10  1  0     0  0
  7 11  2  0     0  0
  8 12  1  0     0  0
  8 19  1  0     0  0
  8 20  1  0     0  0
  9 14  2  0     0  0
  9 15  1  0     0  0
 10 13  2  0     0  0
 10 19  1  0     0  0
 11 13  1  0     0  0
 11 18  1  0     0  0
 12 16  2  0     0  0
 12 17  1  0     0  0
 13 20  1  0     0  0
 14 16  1  0     0  0
 15 17  2  0     0  0
 21 22  1  0     0  0
M  END
> <standard_type>
pIC50

> <# Confs.>
25

> <canonical_smiles>
O=C1C2=C(C(C(OCC)=O)=NN2)C(N1C3=CC=C(Cl)C=C3)=O

> <standard_relation>
=

> <predicted_activity_value>
4.502379350218712

> <actual_activity_value>
4.42712839779952

> <Compound>
38

> <publication_ID>
nan

> <standard_units>
nM

> hash
2358240345664760092

$$$$
38_
XXILIB    08252103423D 0   0.00000     0.00000

 22 24  0     1  0            999 V2000
    4.9773    0.0108   -9.0698 Cl  0  0  0  0  0  1           0  0  0
   -0.7011   -0.0000    1.0053 O   0  0  0  0  0  2           0  0  0
   -1.0551   -0.0073   -5.8741 O   0  0  0  0  0  2           0  0  0
    2.4444    0.0074   -2.7358 O   0  0  0  0  0  2           0  0  0
    1.3622    0.0000   -0.0000 O   0  0  0  0  0  2           0  0  0
   -2.0758   -0.0051   -2.8506 N   0  0  0  0  0  3           0  0  0
   -1.8965   -0.0019   -1.5077 N   0  0  0  0  0  3           0  0  0
    0.9969   -0.0012   -4.6434 N   0  0  2  0  0  3           0  0  0
    3.8250    0.0082   -7.7910 C   0  0  0  0  0  4           0  0  0
   -0.9047   -0.0045   -3.5135 C   0  0  0  0  0  4           0  0  0
   -0.5545   -0.0010   -1.3391 C   0  0  0  0  0  4           0  0  0
    1.9463    0.0021   -5.7005 C   0  0  0  0  0  4           0  0  0
    0.0878   -0.0019   -2.5838 C   0  0  0  0  0  4           0  0  0
    2.9142   -1.0389   -7.6801 C   0  0  0  0  0  4           0  0  0
    3.8084    1.0529   -6.8709 C   0  0  0  0  0  4           0  0  0
    1.9807   -1.0418   -6.6399 C   0  0  0  0  0  4           0  0  0
    2.8736    1.0494   -5.8318 C   0  0  0  0  0  4           0  0  0
    0.0000    0.0000   -0.0000 C   0  0  0  0  0  4           0  0  0
   -0.3997   -0.0043   -4.8448 C   0  0  0  0  0  4           0  0  0
    1.3494    0.0009   -3.2736 C   0  0  0  0  0  4           0  0  0
    1.9855    0.0000    1.2917 C   0  0  0  0  0  4           0  0  0
    2.1936   -1.4384    1.7230 C   0  0  0  0  0  4           0  0  0
  1  9  1  0     0  0
  2 18  2  0     0  0
  3 19  2  0     0  0
  4 20  2  0     0  0
  5 18  1  0     0  0
  5 21  1  0     0  0
  6  7  1  0     0  0
  6 10  1  0     0  0
  7 11  2  0     0  0
  8 12  1  0     0  0
  8 19  1  0     0  0
  8 20  1  0     0  0
  9 14  2  0     0  0
  9 15  1  0     0  0
 10 13  2  0     0  0
 10 19  1  0     0  0
 11 13  1  0     0  0
 11 18  1  0     0  0
 12 16  2  0     0  0
 12 17  1  0     0  0
 13 20  1  0     0  0
 14 16  1  0     0  0
 15 17  2  0     0  0
 21 22  1  0     0  0
M  END
> <standard_type>
pIC50

> <# Confs.>
25

> <canonical_smiles>
O=C1C2=C(C(C(OCC)=O)=NN2)C(N1C3=CC=C(Cl)C=C3)=O

> <standard_relation>
=

> <predicted_activity_value>
4.502379350218712

> <actual_activity_value>
4.42712839779952

> <Compound>
38

> <publication_ID>
nan

> <standard_units>
nM

> hash
2358240345664760092

$$$$
38_
XXILIB    08252103423D 0   0.00000     0.00000

 22 24  0     1  0            999 V2000
    3.9866   -4.0255   -8.6566 Cl  0  0  0  0  0  1           0  0  0
   -0.7011   -0.0000    1.0053 O   0  0  0  0  0  2           0  0  0
   -1.2140   -0.6432   -5.8078 O   0  0  0  0  0  2           0  0  0
    2.0396   -1.6463   -2.5670 O   0  0  0  0  0  2           0  0  0
    1.3622    0.0000    0.0000 O   0  0  0  0  0  2           0  0  0
   -1.9748    0.4089   -2.8928 N   0  0  0  0  0  3           0  0  0
   -1.7514    0.5858   -1.5682 N   0  0  0  0  0  3           0  0  0
    0.6640   -1.3501   -4.5046 N   0  0  2  0  0  3           0  0  0
    3.0250   -3.2507   -7.4573 C   0  0  0  0  0  4           0  0  0
   -0.9685   -0.2584   -3.4869 C   0  0  0  0  0  4           0  0  0
   -0.5545   -0.0010   -1.3391 C   0  0  0  0  0  4           0  0  0
    1.4567   -1.9882   -5.4963 C   0  0  0  0  0  4           0  0  0
   -0.0446   -0.5366   -2.5286 C   0  0  0  0  0  4           0  0  0
    1.7398   -3.7157   -7.1918 C   0  0  0  0  0  4           0  0  0
    3.5362   -2.1622   -6.7559 C   0  0  0  0  0  4           0  0  0
    0.9606   -3.0879   -6.2160 C   0  0  0  0  0  4           0  0  0
    2.7556   -1.5347   -5.7811 C   0  0  0  0  0  4           0  0  0
    0.0000    0.0000    0.0000 C   0  0  0  0  0  4           0  0  0
   -0.5837   -0.7463   -4.7680 C   0  0  0  0  0  4           0  0  0
    1.0416   -1.2491   -3.1452 C   0  0  0  0  0  4           0  0  0
    1.9855    0.0000    1.2917 C   0  0  0  0  0  4           0  0  0
    3.4891   -0.0000    1.0979 C   0  0  0  0  0  4           0  0  0
  1  9  1  0     0  0
  2 18  2  0     0  0
  3 19  2  0     0  0
  4 20  2  0     0  0
  5 18  1  0     0  0
  5 21  1  0     0  0
  6  7  1  0     0  0
  6 10  1  0     0  0
  7 11  2  0     0  0
  8 12  1  0     0  0
  8 19  1  0     0  0
  8 20  1  0     0  0
  9 14  2  0     0  0
  9 15  1  0     0  0
 10 13  2  0     0  0
 10 19  1  0     0  0
 11 13  1  0     0  0
 11 18  1  0     0  0
 12 16  2  0     0  0
 12 17  1  0     0  0
 13 20  1  0     0  0
 14 16  1  0     0  0
 15 17  2  0     0  0
 21 22  1  0     0  0
M  END
> <standard_type>
pIC50

> <# Confs.>
25

> <canonical_smiles>
O=C1C2=C(C(C(OCC)=O)=NN2)C(N1C3=CC=C(Cl)C=C3)=O

> <standard_relation>
=

> <predicted_activity_value>
4.502379350218712

> <actual_activity_value>
4.42712839779952

> <Compound>
38

> <publication_ID>
nan

> <standard_units>
nM

> hash
2358240345664760092

$$$$
38_
XXILIB    08252103423D 0   0.00000     0.00000

 22 24  0     1  0            999 V2000
    3.9660    4.0412   -8.6606 Cl  0  0  0  0  0  1           0  0  0
   -0.7011   -0.0000    1.0053 O   0  0  0  0  0  2           0  0  0
   -1.2112    0.6294   -5.8099 O   0  0  0  0  0  2           0  0  0
    2.0309    1.6588   -2.5658 O   0  0  0  0  0  2           0  0  0
    1.3622    0.0000    0.0000 O   0  0  0  0  0  2           0  0  0
   -1.9720   -0.4183   -2.8933 N   0  0  0  0  0  3           0  0  0
   -1.7507   -0.5896   -1.5677 N   0  0  0  0  0  3           0  0  0
    0.6619    1.3474   -4.5057 N   0  0  2  0  0  3           0  0  0
    3.0112    3.2635   -7.4578 C   0  0  0  0  0  4           0  0  0
   -0.9667    0.2500   -3.4880 C   0  0  0  0  0  4           0  0  0
   -0.5545   -0.0010   -1.3391 C   0  0  0  0  0  4           0  0  0
    1.4509    1.9910   -5.4968 C   0  0  0  0  0  4           0  0  0
   -0.0446    0.5330   -2.5294 C   0  0  0  0  0  4           0  0  0
    1.7248    3.7233   -7.1890 C   0  0  0  0  0  4           0  0  0
    3.5281    2.1764   -6.7585 C   0  0  0  0  0  4           0  0  0
    0.9491    3.0896   -6.2142 C   0  0  0  0  0  4           0  0  0
    2.7518    1.5443   -5.7832 C   0  0  0  0  0  4           0  0  0
    0.0000    0.0000   -0.0000 C   0  0  0  0  0  4           0  0  0
   -0.5831    0.7380   -4.7694 C   0  0  0  0  0  4           0  0  0
    1.0386    1.2501   -3.1458 C   0  0  0  0  0  4           0  0  0
    1.9855    0.0000    1.2917 C   0  0  0  0  0  4           0  0  0
    3.4891   -0.0000    1.0979 C   0  0  0  0  0  4           0  0  0
  1  9  1  0     0  0
  2 18  2  0     0  0
  3 19  2  0     0  0
  4 20  2  0     0  0
  5 18  1  0     0  0
  5 21  1  0     0  0
  6  7  1  0     0  0
  6 10  1  0     0  0
  7 11  2  0     0  0
  8 12  1  0     0  0
  8 19  1  0     0  0
  8 20  1  0     0  0
  9 14  2  0     0  0
  9 15  1  0     0  0
 10 13  2  0     0  0
 10 19  1  0     0  0
 11 13  1  0     0  0
 11 18  1  0     0  0
 12 16  2  0     0  0
 12 17  1  0     0  0
 13 20  1  0     0  0
 14 16  1  0     0  0
 15 17  2  0     0  0
 21 22  1  0     0  0
M  END
> <standard_type>
pIC50

> <# Confs.>
25

> <canonical_smiles>
O=C1C2=C(C(C(OCC)=O)=NN2)C(N1C3=CC=C(Cl)C=C3)=O

> <standard_relation>
=

> <predicted_activity_value>
4.502379350218712

> <actual_activity_value>
4.42712839779952

> <Compound>
38

> <publication_ID>
nan

> <standard_units>
nM

> hash
2358240345664760092

$$$$
38_
XXILIB    08252103423D 0   0.00000     0.00000

 22 24  0     1  0            999 V2000
    4.9722    0.0103   -9.0744 Cl  0  0  0  0  0  1           0  0  0
   -0.7011   -0.0000    1.0053 O   0  0  0  0  0  2           0  0  0
   -1.0551   -0.0073   -5.8741 O   0  0  0  0  0  2           0  0  0
    2.4444    0.0074   -2.7358 O   0  0  0  0  0  2           0  0  0
    1.3622    0.0000    0.0000 O   0  0  0  0  0  2           0  0  0
   -2.0758   -0.0051   -2.8506 N   0  0  0  0  0  3           0  0  0
   -1.8965   -0.0019   -1.5077 N   0  0  0  0  0  3           0  0  0
    0.9969   -0.0012   -4.6434 N   0  0  2  0  0  3           0  0  0
    3.8239    0.0081   -7.7920 C   0  0  0  0  0  4           0  0  0
   -0.9047   -0.0045   -3.5135 C   0  0  0  0  0  4           0  0  0
   -0.5545   -0.0010   -1.3391 C   0  0  0  0  0  4           0  0  0
    1.9463    0.0021   -5.7005 C   0  0  0  0  0  4           0  0  0
    0.0878   -0.0019   -2.5838 C   0  0  0  0  0  4           0  0  0
    2.9097    1.0519   -7.6777 C   0  0  0  0  0  4           0  0  0
    3.8123   -1.0384   -6.8738 C   0  0  0  0  0  4           0  0  0
    1.9757    1.0480   -6.6378 C   0  0  0  0  0  4           0  0  0
    2.8786   -1.0405   -5.8339 C   0  0  0  0  0  4           0  0  0
    0.0000    0.0000   -0.0000 C   0  0  0  0  0  4           0  0  0
   -0.3997   -0.0043   -4.8448 C   0  0  0  0  0  4           0  0  0
    1.3494    0.0009   -3.2736 C   0  0  0  0  0  4           0  0  0
    1.9855    0.0000    1.2917 C   0  0  0  0  0  4           0  0  0
    2.1936    1.4384    1.7230 C   0  0  0  0  0  4           0  0  0
  1  9  1  0     0  0
  2 18  2  0     0  0
  3 19  2  0     0  0
  4 20  2  0     0  0
  5 18  1  0     0  0
  5 21  1  0     0  0
  6  7  1  0     0  0
  6 10  1  0     0  0
  7 11  2  0     0  0
  8 12  1  0     0  0
  8 19  1  0     0  0
  8 20  1  0     0  0
  9 14  2  0     0  0
  9 15  1  0     0  0
 10 13  2  0     0  0
 10 19  1  0     0  0
 11 13  1  0     0  0
 11 18  1  0     0  0
 12 16  2  0     0  0
 12 17  1  0     0  0
 13 20  1  0     0  0
 14 16  1  0     0  0
 15 17  2  0     0  0
 21 22  1  0     0  0
M  END
> <standard_type>
pIC50

> <# Confs.>
25

> <canonical_smiles>
O=C1C2=C(C(C(OCC)=O)=NN2)C(N1C3=CC=C(Cl)C=C3)=O

> <standard_relation>
=

> <predicted_activity_value>
4.502379350218712

> <actual_activity_value>
4.42712839779952

> <Compound>
38

> <publication_ID>
nan

> <standard_units>
nM

> hash
2358240345664760092

$$$$
38_
XXILIB    08252103423D 0   0.00000     0.00000

 22 24  0     1  0            999 V2000
    4.9749    0.0086   -9.0720 Cl  0  0  0  0  0  1           0  0  0
   -0.7011   -0.0000    1.0053 O   0  0  0  0  0  2           0  0  0
   -1.0551   -0.0073   -5.8741 O   0  0  0  0  0  2           0  0  0
    2.4444    0.0074   -2.7358 O   0  0  0  0  0  2           0  0  0
    1.3622    0.0000    0.0000 O   0  0  0  0  0  2           0  0  0
   -2.0758   -0.0051   -2.8506 N   0  0  0  0  0  3           0  0  0
   -1.8965   -0.0019   -1.5077 N   0  0  0  0  0  3           0  0  0
    0.9969   -0.0012   -4.6434 N   0  0  2  0  0  3           0  0  0
    3.8245    0.0077   -7.7915 C   0  0  0  0  0  4           0  0  0
   -0.9047   -0.0045   -3.5135 C   0  0  0  0  0  4           0  0  0
   -0.5545   -0.0010   -1.3391 C   0  0  0  0  0  4           0  0  0
    1.9463    0.0021   -5.7005 C   0  0  0  0  0  4           0  0  0
    0.0878   -0.0019   -2.5838 C   0  0  0  0  0  4           0  0  0
    2.4629    0.0060   -8.0822 C   0  0  0  0  0  4           0  0  0
    4.2595    0.0076   -6.4690 C   0  0  0  0  0  4           0  0  0
    1.5294    0.0024   -7.0420 C   0  0  0  0  0  4           0  0  0
    3.3250    0.0051   -5.4297 C   0  0  0  0  0  4           0  0  0
    0.0000    0.0000   -0.0000 C   0  0  0  0  0  4           0  0  0
   -0.3997   -0.0043   -4.8448 C   0  0  0  0  0  4           0  0  0
    1.3494    0.0009   -3.2736 C   0  0  0  0  0  4           0  0  0
    1.9855   -1.1186    0.6458 C   0  0  0  0  0  4           0  0  0
    2.1936   -2.2114   -0.3842 C   0  0  0  0  0  4           0  0  0
  1  9  1  0     0  0
  2 18  2  0     0  0
  3 19  2  0     0  0
  4 20  2  0     0  0
  5 18  1  0     0  0
  5 21  1  0     0  0
  6  7  1  0     0  0
  6 10  1  0     0  0
  7 11  2  0     0  0
  8 12  1  0     0  0
  8 19  1  0     0  0
  8 20  1  0     0  0
  9 14  2  0     0  0
  9 15  1  0     0  0
 10 13  2  0     0  0
 10 19  1  0     0  0
 11 13  1  0     0  0
 11 18  1  0     0  0
 12 16  2  0     0  0
 12 17  1  0     0  0
 13 20  1  0     0  0
 14 16  1  0     0  0
 15 17  2  0     0  0
 21 22  1  0     0  0
M  END
> <standard_type>
pIC50

> <# Confs.>
25

> <canonical_smiles>
O=C1C2=C(C(C(OCC)=O)=NN2)C(N1C3=CC=C(Cl)C=C3)=O

> <standard_relation>
=

> <predicted_activity_value>
4.502379350218712

> <actual_activity_value>
4.42712839779952

> <Compound>
38

> <publication_ID>
nan

> <standard_units>
nM

> hash
2358240345664760092

$$$$
38_
XXILIB    08252103423D 0   0.00000     0.00000

 22 24  0     1  0            999 V2000
   -8.9413    4.0158   -3.3158 Cl  0  0  0  0  0  1           0  0  0
   -0.7011    0.0000    1.0053 O   0  0  0  0  0  2           0  0  0
   -3.2476    0.6353   -4.9666 O   0  0  0  0  0  2           0  0  0
   -3.2581    1.6442   -0.3756 O   0  0  0  0  0  2           0  0  0
    1.3622    0.0000    0.0000 O   0  0  0  0  0  2           0  0  0
   -0.6482   -0.4135   -3.4415 N   0  0  0  0  0  3           0  0  0
    0.1303   -0.5887   -2.3466 N   0  0  0  0  0  3           0  0  0
   -3.6548    1.3449   -2.7181 N   0  0  2  0  0  3           0  0  0
   -7.4131    3.2428   -3.1411 C   0  0  0  0  0  4           0  0  0
   -1.7803    0.2536   -3.1511 C   0  0  0  0  0  4           0  0  0
   -0.5545   -0.0010   -1.3391 C   0  0  0  0  0  4           0  0  0
   -4.9169    1.9821   -2.8599 C   0  0  0  0  0  4           0  0  0
   -1.7563    0.5335   -1.8206 C   0  0  0  0  0  4           0  0  0
   -7.2774    1.8944   -3.4599 C   0  0  0  0  0  4           0  0  0
   -6.3174    3.9692   -2.6828 C   0  0  0  0  0  4           0  0  0
   -6.0356    1.2681   -3.3205 C   0  0  0  0  0  4           0  0  0
   -5.0765    3.3415   -2.5429 C   0  0  0  0  0  4           0  0  0
    0.0000    0.0000   -0.0000 C   0  0  0  0  0  4           0  0  0
   -2.9583    0.7400   -3.7858 C   0  0  0  0  0  4           0  0  0
   -2.9608    1.2457   -1.4896 C   0  0  0  0  0  4           0  0  0
    1.9855    0.0000    1.2917 C   0  0  0  0  0  4           0  0  0
    3.3155    0.7192    1.1817 C   0  0  0  0  0  4           0  0  0
  1  9  1  0     0  0
  2 18  2  0     0  0
  3 19  2  0     0  0
  4 20  2  0     0  0
  5 18  1  0     0  0
  5 21  1  0     0  0
  6  7  1  0     0  0
  6 10  1  0     0  0
  7 11  2  0     0  0
  8 12  1  0     0  0
  8 19  1  0     0  0
  8 20  1  0     0  0
  9 14  2  0     0  0
  9 15  1  0     0  0
 10 13  2  0     0  0
 10 19  1  0     0  0
 11 13  1  0     0  0
 11 18  1  0     0  0
 12 16  2  0     0  0
 12 17  1  0     0  0
 13 20  1  0     0  0
 14 16  1  0     0  0
 15 17  2  0     0  0
 21 22  1  0     0  0
M  END
> <standard_type>
pIC50

> <# Confs.>
25

> <canonical_smiles>
O=C1C2=C(C(C(OCC)=O)=NN2)C(N1C3=CC=C(Cl)C=C3)=O

> <standard_relation>
=

> <predicted_activity_value>
4.502379350218712

> <actual_activity_value>
4.42712839779952

> <Compound>
38

> <publication_ID>
nan

> <standard_units>
nM

> hash
2358240345664760092

$$$$
38_
XXILIB    08252103423D 0   0.00000     0.00000

 22 24  0     1  0            999 V2000
    4.9749    0.0086   -9.0720 Cl  0  0  0  0  0  1           0  0  0
   -0.7011   -0.0000    1.0053 O   0  0  0  0  0  2           0  0  0
   -1.0551   -0.0073   -5.8741 O   0  0  0  0  0  2           0  0  0
    2.4444    0.0074   -2.7358 O   0  0  0  0  0  2           0  0  0
    1.3622    0.0000   -0.0000 O   0  0  0  0  0  2           0  0  0
   -2.0758   -0.0051   -2.8506 N   0  0  0  0  0  3           0  0  0
   -1.8965   -0.0019   -1.5077 N   0  0  0  0  0  3           0  0  0
    0.9969   -0.0012   -4.6434 N   0  0  2  0  0  3           0  0  0
    3.8245    0.0077   -7.7915 C   0  0  0  0  0  4           0  0  0
   -0.9047   -0.0045   -3.5135 C   0  0  0  0  0  4           0  0  0
   -0.5545   -0.0010   -1.3391 C   0  0  0  0  0  4           0  0  0
    1.9463    0.0021   -5.7005 C   0  0  0  0  0  4           0  0  0
    0.0878   -0.0019   -2.5838 C   0  0  0  0  0  4           0  0  0
    2.4629    0.0060   -8.0822 C   0  0  0  0  0  4           0  0  0
    4.2595    0.0076   -6.4690 C   0  0  0  0  0  4           0  0  0
    1.5294    0.0024   -7.0420 C   0  0  0  0  0  4           0  0  0
    3.3250    0.0051   -5.4297 C   0  0  0  0  0  4           0  0  0
    0.0000    0.0000   -0.0000 C   0  0  0  0  0  4           0  0  0
   -0.3997   -0.0043   -4.8448 C   0  0  0  0  0  4           0  0  0
    1.3494    0.0009   -3.2736 C   0  0  0  0  0  4           0  0  0
    1.9855    1.1186    0.6458 C   0  0  0  0  0  4           0  0  0
    2.1936    2.2114   -0.3842 C   0  0  0  0  0  4           0  0  0
  1  9  1  0     0  0
  2 18  2  0     0  0
  3 19  2  0     0  0
  4 20  2  0     0  0
  5 18  1  0     0  0
  5 21  1  0     0  0
  6  7  1  0     0  0
  6 10  1  0     0  0
  7 11  2  0     0  0
  8 12  1  0     0  0
  8 19  1  0     0  0
  8 20  1  0     0  0
  9 14  2  0     0  0
  9 15  1  0     0  0
 10 13  2  0     0  0
 10 19  1  0     0  0
 11 13  1  0     0  0
 11 18  1  0     0  0
 12 16  2  0     0  0
 12 17  1  0     0  0
 13 20  1  0     0  0
 14 16  1  0     0  0
 15 17  2  0     0  0
 21 22  1  0     0  0
M  END
> <standard_type>
pIC50

> <# Confs.>
25

> <canonical_smiles>
O=C1C2=C(C(C(OCC)=O)=NN2)C(N1C3=CC=C(Cl)C=C3)=O

> <standard_relation>
=

> <predicted_activity_value>
4.502379350218712

> <actual_activity_value>
4.42712839779952

> <Compound>
38

> <publication_ID>
nan

> <standard_units>
nM

> hash
2358240345664760092

$$$$
38_
XXILIB    08252103423D 0   0.00000     0.00000

 22 24  0     1  0            999 V2000
   -8.9263   -4.0491   -3.3146 Cl  0  0  0  0  0  1           0  0  0
   -0.7011   -0.0000    1.0053 O   0  0  0  0  0  2           0  0  0
   -3.2504   -0.6372   -4.9645 O   0  0  0  0  0  2           0  0  0
   -3.2495   -1.6610   -0.3768 O   0  0  0  0  0  2           0  0  0
    1.3622    0.0000   -0.0000 O   0  0  0  0  0  2           0  0  0
   -0.6510    0.4137   -3.4410 N   0  0  0  0  0  3           0  0  0
    0.1295    0.5867   -2.3471 N   0  0  0  0  0  3           0  0  0
   -3.6528   -1.3527   -2.7170 N   0  0  2  0  0  3           0  0  0
   -7.4005   -3.2711   -3.1413 C   0  0  0  0  0  4           0  0  0
   -1.7821   -0.2548   -3.1500 C   0  0  0  0  0  4           0  0  0
   -0.5545   -0.0010   -1.3391 C   0  0  0  0  0  4           0  0  0
   -4.9111   -1.9971   -2.8594 C   0  0  0  0  0  4           0  0  0
   -1.7563   -0.5361   -1.8198 C   0  0  0  0  0  4           0  0  0
   -6.5055   -3.2540   -4.2076 C   0  0  0  0  0  4           0  0  0
   -7.0670   -2.6603   -1.9355 C   0  0  0  0  0  4           0  0  0
   -5.2680   -2.6197   -4.0670 C   0  0  0  0  0  4           0  0  0
   -5.8288   -2.0272   -1.7959 C   0  0  0  0  0  4           0  0  0
    0.0000    0.0000    0.0000 C   0  0  0  0  0  4           0  0  0
   -2.9590   -0.7443   -3.7844 C   0  0  0  0  0  4           0  0  0
   -2.9578   -1.2535   -1.4891 C   0  0  0  0  0  4           0  0  0
    1.9855   -1.1186    0.6458 C   0  0  0  0  0  4           0  0  0
    1.5458   -2.3857   -0.0610 C   0  0  0  0  0  4           0  0  0
  1  9  1  0     0  0
  2 18  2  0     0  0
  3 19  2  0     0  0
  4 20  2  0     0  0
  5 18  1  0     0  0
  5 21  1  0     0  0
  6  7  1  0     0  0
  6 10  1  0     0  0
  7 11  2  0     0  0
  8 12  1  0     0  0
  8 19  1  0     0  0
  8 20  1  0     0  0
  9 14  2  0     0  0
  9 15  1  0     0  0
 10 13  2  0     0  0
 10 19  1  0     0  0
 11 13  1  0     0  0
 11 18  1  0     0  0
 12 16  2  0     0  0
 12 17  1  0     0  0
 13 20  1  0     0  0
 14 16  1  0     0  0
 15 17  2  0     0  0
 21 22  1  0     0  0
M  END
> <standard_type>
pIC50

> <# Confs.>
25

> <canonical_smiles>
O=C1C2=C(C(C(OCC)=O)=NN2)C(N1C3=CC=C(Cl)C=C3)=O

> <standard_relation>
=

> <predicted_activity_value>
4.502379350218712

> <actual_activity_value>
4.42712839779952

> <Compound>
38

> <publication_ID>
nan

> <standard_units>
nM

> hash
2358240345664760092

$$$$
36_
XXILIB    08252103423D 0   0.00000     0.00000

 21 23  0     1  0            999 V2000
    1.3747    0.0000    0.0000 O   0  0  0  0  0  2           0  0  0
   -3.7376   -2.0322    4.1059 O   0  0  0  0  0  2           0  0  0
   -7.0135    2.0152    3.0207 O   0  0  0  0  0  2           0  0  0
   -4.4870    2.1597    1.9556 O   0  0  0  0  0  2           0  0  0
   -6.3208   -2.1767    5.0289 O   0  0  0  0  0  2           0  0  0
   -0.4357   -0.0279    2.4913 N   0  0  0  0  0  3           0  0  0
    0.0000    0.0000    0.0000 C   0  0  0  0  0  4           0  0  0
   -0.7930    0.0000    1.1627 C   0  0  0  0  0  4           0  0  0
   -1.5481   -0.0270    3.2856 C   0  0  0  0  0  4           0  0  0
   -2.1935    0.0525    1.1168 C   0  0  0  0  0  4           0  0  0
   -2.6631    0.0264    2.4735 C   0  0  0  0  0  4           0  0  0
   -0.6401    0.1069   -1.2376 C   0  0  0  0  0  4           0  0  0
   -2.8105    0.1198   -0.1546 C   0  0  0  0  0  4           0  0  0
   -2.0271    0.1537   -1.3143 C   0  0  0  0  0  4           0  0  0
   -4.4806   -1.1013    3.8036 C   0  0  0  0  0  4           0  0  0
   -6.2527    1.0779    3.2406 C   0  0  0  0  0  4           0  0  0
   -4.8610    1.0709    2.7241 C   0  0  0  0  0  4           0  0  0
   -5.8825   -1.0987    4.2867 C   0  0  0  0  0  4           0  0  0
    1.9622   -1.2986    0.0000 C   0  0  0  0  0  4           0  0  0
   -4.0104    0.0548    2.9665 C   0  0  0  0  0  4           0  0  0
   -6.7025   -0.0822    4.0239 C   0  0  0  0  0  4           0  0  0
  1  7  1  0     0  0
  1 19  1  0     0  0
  2 15  2  0     0  0
  3 16  2  0     0  0
  4 17  1  0     0  0
  5 18  1  0     0  0
  6  8  1  0     0  0
  6  9  1  0     0  0
  7  8  1  0     0  0
  7 12  2  0     0  0
  8 10  2  0     0  0
  9 11  2  0     0  0
 10 11  1  0     0  0
 10 13  1  0     0  0
 11 20  1  0     0  0
 12 14  1  0     0  0
 13 14  2  0     0  0
 15 18  1  0     0  0
 15 20  1  0     0  0
 16 17  1  0     0  0
 16 21  1  0     0  0
 17 20  2  0     0  0
 18 21  2  0     0  0
M  END
> <standard_type>
pIC50

> <# Confs.>
11

> <canonical_smiles>
O=C(C(O)=C1)C(C2=CNC3=C2C=CC=C3OC)=C(O)C1=O

> <standard_relation>
=

> <predicted_activity_value>
4.830325565941193

> <actual_activity_value>
4.823908740944319

> <Compound>
36

> <publication_ID>
nan

> <standard_units>
nM

> hash
17713006289487086535

$$$$
36_
XXILIB    08252103423D 0   0.00000     0.00000

 21 23  0     1  0            999 V2000
    1.3747    0.0000    0.0000 O   0  0  0  0  0  2           0  0  0
   -3.6388    2.1087    4.1376 O   0  0  0  0  0  2           0  0  0
   -7.1432   -1.6896    2.8795 O   0  0  0  0  0  2           0  0  0
   -4.6155   -1.9573    1.8416 O   0  0  0  0  0  2           0  0  0
   -6.1469    2.2440    5.2498 O   0  0  0  0  0  2           0  0  0
   -0.4357   -0.0279    2.4913 N   0  0  0  0  0  3           0  0  0
    0.0000    0.0000    0.0000 C   0  0  0  0  0  4           0  0  0
   -0.7930    0.0000    1.1627 C   0  0  0  0  0  4           0  0  0
   -1.5481   -0.0270    3.2856 C   0  0  0  0  0  4           0  0  0
   -2.1935    0.0525    1.1168 C   0  0  0  0  0  4           0  0  0
   -2.6631    0.0264    2.4735 C   0  0  0  0  0  4           0  0  0
   -0.6401    0.1069   -1.2376 C   0  0  0  0  0  4           0  0  0
   -2.8105    0.1198   -0.1546 C   0  0  0  0  0  4           0  0  0
   -2.0271    0.1537   -1.3143 C   0  0  0  0  0  4           0  0  0
   -4.4116    1.1945    3.8600 C   0  0  0  0  0  4           0  0  0
   -6.3152   -0.8353    3.1799 C   0  0  0  0  0  4           0  0  0
   -4.9274   -0.8817    2.6551 C   0  0  0  0  0  4           0  0  0
   -5.7908    1.2129    4.4043 C   0  0  0  0  0  4           0  0  0
    1.9622   -1.2986    0.0000 C   0  0  0  0  0  4           0  0  0
   -4.0104    0.0548    2.9665 C   0  0  0  0  0  4           0  0  0
   -6.6732    0.2677    4.0839 C   0  0  0  0  0  4           0  0  0
  1  7  1  0     0  0
  1 19  1  0     0  0
  2 15  2  0     0  0
  3 16  2  0     0  0
  4 17  1  0     0  0
  5 18  1  0     0  0
  6  8  1  0     0  0
  6  9  1  0     0  0
  7  8  1  0     0  0
  7 12  2  0     0  0
  8 10  2  0     0  0
  9 11  2  0     0  0
 10 11  1  0     0  0
 10 13  1  0     0  0
 11 20  1  0     0  0
 12 14  1  0     0  0
 13 14  2  0     0  0
 15 18  1  0     0  0
 15 20  1  0     0  0
 16 17  1  0     0  0
 16 21  1  0     0  0
 17 20  2  0     0  0
 18 21  2  0     0  0
M  END
> <standard_type>
pIC50

> <# Confs.>
11

> <canonical_smiles>
O=C(C(O)=C1)C(C2=CNC3=C2C=CC=C3OC)=C(O)C1=O

> <standard_relation>
=

> <predicted_activity_value>
4.830325565941193

> <actual_activity_value>
4.823908740944319

> <Compound>
36

> <publication_ID>
nan

> <standard_units>
nM

> hash
17713006289487086535

$$$$
36_
XXILIB    08252103423D 0   0.00000     0.00000

 21 23  0     1  0            999 V2000
    1.3747    0.0000   -0.0000 O   0  0  0  0  0  2           0  0  0
   -3.6388    2.1087    4.1376 O   0  0  0  0  0  2           0  0  0
   -7.1432   -1.6896    2.8795 O   0  0  0  0  0  2           0  0  0
   -4.6155   -1.9573    1.8416 O   0  0  0  0  0  2           0  0  0
   -6.1469    2.2440    5.2498 O   0  0  0  0  0  2           0  0  0
   -0.4357   -0.0279    2.4913 N   0  0  0  0  0  3           0  0  0
    0.0000    0.0000    0.0000 C   0  0  0  0  0  4           0  0  0
   -0.7930    0.0000    1.1627 C   0  0  0  0  0  4           0  0  0
   -1.5481   -0.0270    3.2856 C   0  0  0  0  0  4           0  0  0
   -2.1935    0.0525    1.1168 C   0  0  0  0  0  4           0  0  0
   -2.6631    0.0264    2.4735 C   0  0  0  0  0  4           0  0  0
   -0.6401    0.1069   -1.2376 C   0  0  0  0  0  4           0  0  0
   -2.8105    0.1198   -0.1546 C   0  0  0  0  0  4           0  0  0
   -2.0271    0.1537   -1.3143 C   0  0  0  0  0  4           0  0  0
   -4.4116    1.1945    3.8600 C   0  0  0  0  0  4           0  0  0
   -6.3152   -0.8353    3.1799 C   0  0  0  0  0  4           0  0  0
   -4.9274   -0.8817    2.6551 C   0  0  0  0  0  4           0  0  0
   -5.7908    1.2129    4.4043 C   0  0  0  0  0  4           0  0  0
    1.9622    1.2986    0.0000 C   0  0  0  0  0  4           0  0  0
   -4.0104    0.0548    2.9665 C   0  0  0  0  0  4           0  0  0
   -6.6732    0.2677    4.0839 C   0  0  0  0  0  4           0  0  0
  1  7  1  0     0  0
  1 19  1  0     0  0
  2 15  2  0     0  0
  3 16  2  0     0  0
  4 17  1  0     0  0
  5 18  1  0     0  0
  6  8  1  0     0  0
  6  9  1  0     0  0
  7  8  1  0     0  0
  7 12  2  0     0  0
  8 10  2  0     0  0
  9 11  2  0     0  0
 10 11  1  0     0  0
 10 13  1  0     0  0
 11 20  1  0     0  0
 12 14  1  0     0  0
 13 14  2  0     0  0
 15 18  1  0     0  0
 15 20  1  0     0  0
 16 17  1  0     0  0
 16 21  1  0     0  0
 17 20  2  0     0  0
 18 21  2  0     0  0
M  END
> <standard_type>
pIC50

> <# Confs.>
11

> <canonical_smiles>
O=C(C(O)=C1)C(C2=CNC3=C2C=CC=C3OC)=C(O)C1=O

> <standard_relation>
=

> <predicted_activity_value>
4.830325565941193

> <actual_activity_value>
4.823908740944319

> <Compound>
36

> <publication_ID>
nan

> <standard_units>
nM

> hash
17713006289487086535

$$$$
36_
XXILIB    08252103423D 0   0.00000     0.00000

 21 23  0     1  0            999 V2000
    1.3747    0.0000   -0.0000 O   0  0  0  0  0  2           0  0  0
   -3.7376   -2.0322    4.1059 O   0  0  0  0  0  2           0  0  0
   -7.0135    2.0152    3.0207 O   0  0  0  0  0  2           0  0  0
   -4.4870    2.1597    1.9556 O   0  0  0  0  0  2           0  0  0
   -6.3208   -2.1767    5.0289 O   0  0  0  0  0  2           0  0  0
   -0.4357   -0.0279    2.4913 N   0  0  0  0  0  3           0  0  0
    0.0000    0.0000    0.0000 C   0  0  0  0  0  4           0  0  0
   -0.7930    0.0000    1.1627 C   0  0  0  0  0  4           0  0  0
   -1.5481   -0.0270    3.2856 C   0  0  0  0  0  4           0  0  0
   -2.1935    0.0525    1.1168 C   0  0  0  0  0  4           0  0  0
   -2.6631    0.0264    2.4735 C   0  0  0  0  0  4           0  0  0
   -0.6401    0.1069   -1.2376 C   0  0  0  0  0  4           0  0  0
   -2.8105    0.1198   -0.1546 C   0  0  0  0  0  4           0  0  0
   -2.0271    0.1537   -1.3143 C   0  0  0  0  0  4           0  0  0
   -4.4806   -1.1013    3.8036 C   0  0  0  0  0  4           0  0  0
   -6.2527    1.0779    3.2406 C   0  0  0  0  0  4           0  0  0
   -4.8610    1.0709    2.7241 C   0  0  0  0  0  4           0  0  0
   -5.8825   -1.0987    4.2867 C   0  0  0  0  0  4           0  0  0
    1.9622    1.2986    0.0000 C   0  0  0  0  0  4           0  0  0
   -4.0104    0.0548    2.9665 C   0  0  0  0  0  4           0  0  0
   -6.7025   -0.0822    4.0239 C   0  0  0  0  0  4           0  0  0
  1  7  1  0     0  0
  1 19  1  0     0  0
  2 15  2  0     0  0
  3 16  2  0     0  0
  4 17  1  0     0  0
  5 18  1  0     0  0
  6  8  1  0     0  0
  6  9  1  0     0  0
  7  8  1  0     0  0
  7 12  2  0     0  0
  8 10  2  0     0  0
  9 11  2  0     0  0
 10 11  1  0     0  0
 10 13  1  0     0  0
 11 20  1  0     0  0
 12 14  1  0     0  0
 13 14  2  0     0  0
 15 18  1  0     0  0
 15 20  1  0     0  0
 16 17  1  0     0  0
 16 21  1  0     0  0
 17 20  2  0     0  0
 18 21  2  0     0  0
M  END
> <standard_type>
pIC50

> <# Confs.>
11

> <canonical_smiles>
O=C(C(O)=C1)C(C2=CNC3=C2C=CC=C3OC)=C(O)C1=O

> <standard_relation>
=

> <predicted_activity_value>
4.830325565941193

> <actual_activity_value>
4.823908740944319

> <Compound>
36

> <publication_ID>
nan

> <standard_units>
nM

> hash
17713006289487086535

$$$$
36_
XXILIB    08252103423D 0   0.00000     0.00000

 21 23  0     1  0            999 V2000
    1.3747   -0.0000   -0.0000 O   0  0  0  0  0  2           0  0  0
   -4.0417    2.4474    3.0171 O   0  0  0  0  0  2           0  0  0
   -6.7866   -2.0273    3.8735 O   0  0  0  0  0  2           0  0  0
   -4.2177   -2.3193    2.9494 O   0  0  0  0  0  2           0  0  0
   -6.5707    2.6631    4.0677 O   0  0  0  0  0  2           0  0  0
   -0.4357   -0.0279    2.4913 N   0  0  0  0  0  3           0  0  0
    0.0000    0.0000    0.0000 C   0  0  0  0  0  4           0  0  0
   -0.7930    0.0000    1.1627 C   0  0  0  0  0  4           0  0  0
   -1.5481   -0.0270    3.2856 C   0  0  0  0  0  4           0  0  0
   -2.1935    0.0525    1.1168 C   0  0  0  0  0  4           0  0  0
   -2.6631    0.0264    2.4735 C   0  0  0  0  0  4           0  0  0
   -0.6401    0.1069   -1.2376 C   0  0  0  0  0  4           0  0  0
   -2.8105    0.1198   -0.1546 C   0  0  0  0  0  4           0  0  0
   -2.0271    0.1537   -1.3143 C   0  0  0  0  0  4           0  0  0
   -4.6336    1.3942    3.2417 C   0  0  0  0  0  4           0  0  0
   -6.1306   -1.0059    3.6941 C   0  0  0  0  0  4           0  0  0
   -4.7392   -1.0580    3.1793 C   0  0  0  0  0  4           0  0  0
   -6.0123    1.4326    3.7863 C   0  0  0  0  0  4           0  0  0
    1.9622    0.0000   -1.2986 C   0  0  0  0  0  4           0  0  0
   -4.0104    0.0548    2.9665 C   0  0  0  0  0  4           0  0  0
   -6.7053    0.3139    3.9935 C   0  0  0  0  0  4           0  0  0
  1  7  1  0     0  0
  1 19  1  0     0  0
  2 15  2  0     0  0
  3 16  2  0     0  0
  4 17  1  0     0  0
  5 18  1  0     0  0
  6  8  1  0     0  0
  6  9  1  0     0  0
  7  8  1  0     0  0
  7 12  2  0     0  0
  8 10  2  0     0  0
  9 11  2  0     0  0
 10 11  1  0     0  0
 10 13  1  0     0  0
 11 20  1  0     0  0
 12 14  1  0     0  0
 13 14  2  0     0  0
 15 18  1  0     0  0
 15 20  1  0     0  0
 16 17  1  0     0  0
 16 21  1  0     0  0
 17 20  2  0     0  0
 18 21  2  0     0  0
M  END
> <standard_type>
pIC50

> <# Confs.>
11

> <canonical_smiles>
O=C(C(O)=C1)C(C2=CNC3=C2C=CC=C3OC)=C(O)C1=O

> <standard_relation>
=

> <predicted_activity_value>
4.830325565941193

> <actual_activity_value>
4.823908740944319

> <Compound>
36

> <publication_ID>
nan

> <standard_units>
nM

> hash
17713006289487086535

$$$$
36_
XXILIB    08252103423D 0   0.00000     0.00000

 21 23  0     1  0            999 V2000
    1.3747   -0.0000   -0.0000 O   0  0  0  0  0  2           0  0  0
   -4.1558   -2.3341    2.9805 O   0  0  0  0  0  2           0  0  0
   -6.6368    2.2507    4.0365 O   0  0  0  0  0  2           0  0  0
   -4.0694    2.4345    3.0810 O   0  0  0  0  0  2           0  0  0
   -6.7715   -2.4415    3.8126 O   0  0  0  0  0  2           0  0  0
   -0.4357   -0.0279    2.4913 N   0  0  0  0  0  3           0  0  0
    0.0000    0.0000    0.0000 C   0  0  0  0  0  4           0  0  0
   -0.7930    0.0000    1.1627 C   0  0  0  0  0  4           0  0  0
   -1.5481   -0.0270    3.2856 C   0  0  0  0  0  4           0  0  0
   -2.1935    0.0525    1.1168 C   0  0  0  0  0  4           0  0  0
   -2.6631    0.0264    2.4735 C   0  0  0  0  0  4           0  0  0
   -0.6401    0.1069   -1.2376 C   0  0  0  0  0  4           0  0  0
   -2.8105    0.1198   -0.1546 C   0  0  0  0  0  4           0  0  0
   -2.0271    0.1537   -1.3143 C   0  0  0  0  0  4           0  0  0
   -4.7133   -1.2567    3.1766 C   0  0  0  0  0  4           0  0  0
   -6.0584    1.2032    3.7642 C   0  0  0  0  0  4           0  0  0
   -4.6626    1.1966    3.2590 C   0  0  0  0  0  4           0  0  0
   -6.1182   -1.2366    3.6505 C   0  0  0  0  0  4           0  0  0
    1.9622    0.0000   -1.2986 C   0  0  0  0  0  4           0  0  0
   -4.0104    0.0548    2.9665 C   0  0  0  0  0  4           0  0  0
   -6.7392   -0.0902    3.9243 C   0  0  0  0  0  4           0  0  0
  1  7  1  0     0  0
  1 19  1  0     0  0
  2 15  2  0     0  0
  3 16  2  0     0  0
  4 17  1  0     0  0
  5 18  1  0     0  0
  6  8  1  0     0  0
  6  9  1  0     0  0
  7  8  1  0     0  0
  7 12  2  0     0  0
  8 10  2  0     0  0
  9 11  2  0     0  0
 10 11  1  0     0  0
 10 13  1  0     0  0
 11 20  1  0     0  0
 12 14  1  0     0  0
 13 14  2  0     0  0
 15 18  1  0     0  0
 15 20  1  0     0  0
 16 17  1  0     0  0
 16 21  1  0     0  0
 17 20  2  0     0  0
 18 21  2  0     0  0
M  END
> <standard_type>
pIC50

> <# Confs.>
11

> <canonical_smiles>
O=C(C(O)=C1)C(C2=CNC3=C2C=CC=C3OC)=C(O)C1=O

> <standard_relation>
=

> <predicted_activity_value>
4.830325565941193

> <actual_activity_value>
4.823908740944319

> <Compound>
36

> <publication_ID>
nan

> <standard_units>
nM

> hash
17713006289487086535

$$$$
36_
XXILIB    08252103423D 0   0.00000     0.00000

 21 23  0     1  0            999 V2000
    1.3747    0.0000    0.0000 O   0  0  0  0  0  2           0  0  0
   -4.8383   -1.1069    1.0447 O   0  0  0  0  0  2           0  0  0
   -6.0392    1.0926    5.7363 O   0  0  0  0  0  2           0  0  0
   -3.4004    1.1705    4.9821 O   0  0  0  0  0  2           0  0  0
   -7.4786   -1.0317    1.7993 O   0  0  0  0  0  2           0  0  0
   -0.4357   -0.0279    2.4913 N   0  0  0  0  0  3           0  0  0
    0.0000    0.0000    0.0000 C   0  0  0  0  0  4           0  0  0
   -0.7930    0.0000    1.1627 C   0  0  0  0  0  4           0  0  0
   -1.5481   -0.0270    3.2856 C   0  0  0  0  0  4           0  0  0
   -2.1935    0.0525    1.1168 C   0  0  0  0  0  4           0  0  0
   -2.6631    0.0264    2.4735 C   0  0  0  0  0  4           0  0  0
   -0.6401    0.1069   -1.2376 C   0  0  0  0  0  4           0  0  0
   -2.8105    0.1198   -0.1546 C   0  0  0  0  0  4           0  0  0
   -2.0271    0.1537   -1.3143 C   0  0  0  0  0  4           0  0  0
   -5.0872   -0.5557    2.1144 C   0  0  0  0  0  4           0  0  0
   -5.7484    0.6117    4.6455 C   0  0  0  0  0  4           0  0  0
   -4.3470    0.5892    4.1564 C   0  0  0  0  0  4           0  0  0
   -6.4876   -0.4983    2.5984 C   0  0  0  0  0  4           0  0  0
    1.9622   -1.2986    0.0000 C   0  0  0  0  0  4           0  0  0
   -4.0104    0.0548    2.9665 C   0  0  0  0  0  4           0  0  0
   -6.7902    0.0440    3.7770 C   0  0  0  0  0  4           0  0  0
  1  7  1  0     0  0
  1 19  1  0     0  0
  2 15  2  0     0  0
  3 16  2  0     0  0
  4 17  1  0     0  0
  5 18  1  0     0  0
  6  8  1  0     0  0
  6  9  1  0     0  0
  7  8  1  0     0  0
  7 12  2  0     0  0
  8 10  2  0     0  0
  9 11  2  0     0  0
 10 11  1  0     0  0
 10 13  1  0     0  0
 11 20  1  0     0  0
 12 14  1  0     0  0
 13 14  2  0     0  0
 15 18  1  0     0  0
 15 20  1  0     0  0
 16 17  1  0     0  0
 16 21  1  0     0  0
 17 20  2  0     0  0
 18 21  2  0     0  0
M  END
> <standard_type>
pIC50

> <# Confs.>
11

> <canonical_smiles>
O=C(C(O)=C1)C(C2=CNC3=C2C=CC=C3OC)=C(O)C1=O

> <standard_relation>
=

> <predicted_activity_value>
4.830325565941193

> <actual_activity_value>
4.823908740944319

> <Compound>
36

> <publication_ID>
nan

> <standard_units>
nM

> hash
17713006289487086535

$$$$
36_
XXILIB    08252103423D 0   0.00000     0.00000

 21 23  0     1  0            999 V2000
    1.3747    0.0000   -0.0000 O   0  0  0  0  0  2           0  0  0
   -4.8383   -1.1069    1.0447 O   0  0  0  0  0  2           0  0  0
   -6.0392    1.0926    5.7363 O   0  0  0  0  0  2           0  0  0
   -3.4004    1.1705    4.9821 O   0  0  0  0  0  2           0  0  0
   -7.4786   -1.0317    1.7993 O   0  0  0  0  0  2           0  0  0
   -0.4357   -0.0279    2.4913 N   0  0  0  0  0  3           0  0  0
    0.0000    0.0000    0.0000 C   0  0  0  0  0  4           0  0  0
   -0.7930    0.0000    1.1627 C   0  0  0  0  0  4           0  0  0
   -1.5481   -0.0270    3.2856 C   0  0  0  0  0  4           0  0  0
   -2.1935    0.0525    1.1168 C   0  0  0  0  0  4           0  0  0
   -2.6631    0.0264    2.4735 C   0  0  0  0  0  4           0  0  0
   -0.6401    0.1069   -1.2376 C   0  0  0  0  0  4           0  0  0
   -2.8105    0.1198   -0.1546 C   0  0  0  0  0  4           0  0  0
   -2.0271    0.1537   -1.3143 C   0  0  0  0  0  4           0  0  0
   -5.0872   -0.5557    2.1144 C   0  0  0  0  0  4           0  0  0
   -5.7484    0.6117    4.6455 C   0  0  0  0  0  4           0  0  0
   -4.3470    0.5892    4.1564 C   0  0  0  0  0  4           0  0  0
   -6.4876   -0.4983    2.5984 C   0  0  0  0  0  4           0  0  0
    1.9622    1.2986    0.0000 C   0  0  0  0  0  4           0  0  0
   -4.0104    0.0548    2.9665 C   0  0  0  0  0  4           0  0  0
   -6.7902    0.0440    3.7770 C   0  0  0  0  0  4           0  0  0
  1  7  1  0     0  0
  1 19  1  0     0  0
  2 15  2  0     0  0
  3 16  2  0     0  0
  4 17  1  0     0  0
  5 18  1  0     0  0
  6  8  1  0     0  0
  6  9  1  0     0  0
  7  8  1  0     0  0
  7 12  2  0     0  0
  8 10  2  0     0  0
  9 11  2  0     0  0
 10 11  1  0     0  0
 10 13  1  0     0  0
 11 20  1  0     0  0
 12 14  1  0     0  0
 13 14  2  0     0  0
 15 18  1  0     0  0
 15 20  1  0     0  0
 16 17  1  0     0  0
 16 21  1  0     0  0
 17 20  2  0     0  0
 18 21  2  0     0  0
M  END
> <standard_type>
pIC50

> <# Confs.>
11

> <canonical_smiles>
O=C(C(O)=C1)C(C2=CNC3=C2C=CC=C3OC)=C(O)C1=O

> <standard_relation>
=

> <predicted_activity_value>
4.830325565941193

> <actual_activity_value>
4.823908740944319

> <Compound>
36

> <publication_ID>
nan

> <standard_units>
nM

> hash
17713006289487086535

$$$$
36_
XXILIB    08252103423D 0   0.00000     0.00000

 21 23  0     1  0            999 V2000
    1.3747   -0.0000   -0.0000 O   0  0  0  0  0  2           0  0  0
   -3.3592    1.2202    4.9529 O   0  0  0  0  0  2           0  0  0
   -7.3842   -0.8693    2.1737 O   0  0  0  0  0  2           0  0  0
   -4.8868   -1.0553    1.0483 O   0  0  0  0  0  2           0  0  0
   -5.8636    1.2534    6.0810 O   0  0  0  0  0  2           0  0  0
   -0.4357   -0.0279    2.4913 N   0  0  0  0  0  3           0  0  0
    0.0000    0.0000    0.0000 C   0  0  0  0  0  4           0  0  0
   -0.7930    0.0000    1.1627 C   0  0  0  0  0  4           0  0  0
   -1.5481   -0.0270    3.2856 C   0  0  0  0  0  4           0  0  0
   -2.1935    0.0525    1.1168 C   0  0  0  0  0  4           0  0  0
   -2.6631    0.0264    2.4735 C   0  0  0  0  0  4           0  0  0
   -0.6401    0.1069   -1.2376 C   0  0  0  0  0  4           0  0  0
   -2.8105    0.1198   -0.1546 C   0  0  0  0  0  4           0  0  0
   -2.0271    0.1537   -1.3143 C   0  0  0  0  0  4           0  0  0
   -4.2597    0.6932    4.3038 C   0  0  0  0  0  4           0  0  0
   -6.4407   -0.4144    2.8129 C   0  0  0  0  0  4           0  0  0
   -5.0548   -0.4505    2.2820 C   0  0  0  0  0  4           0  0  0
   -5.6428    0.6944    4.8385 C   0  0  0  0  0  4           0  0  0
    1.9622    0.0000   -1.2986 C   0  0  0  0  0  4           0  0  0
   -4.0104    0.0548    2.9665 C   0  0  0  0  0  4           0  0  0
   -6.6543    0.1797    4.1407 C   0  0  0  0  0  4           0  0  0
  1  7  1  0     0  0
  1 19  1  0     0  0
  2 15  2  0     0  0
  3 16  2  0     0  0
  4 17  1  0     0  0
  5 18  1  0     0  0
  6  8  1  0     0  0
  6  9  1  0     0  0
  7  8  1  0     0  0
  7 12  2  0     0  0
  8 10  2  0     0  0
  9 11  2  0     0  0
 10 11  1  0     0  0
 10 13  1  0     0  0
 11 20  1  0     0  0
 12 14  1  0     0  0
 13 14  2  0     0  0
 15 18  1  0     0  0
 15 20  1  0     0  0
 16 17  1  0     0  0
 16 21  1  0     0  0
 17 20  2  0     0  0
 18 21  2  0     0  0
M  END
> <standard_type>
pIC50

> <# Confs.>
11

> <canonical_smiles>
O=C(C(O)=C1)C(C2=CNC3=C2C=CC=C3OC)=C(O)C1=O

> <standard_relation>
=

> <predicted_activity_value>
4.830325565941193

> <actual_activity_value>
4.823908740944319

> <Compound>
36

> <publication_ID>
nan

> <standard_units>
nM

> hash
17713006289487086535

$$$$
36_
XXILIB    08252103423D 0   0.00000     0.00000

 21 23  0     1  0            999 V2000
    1.3747    0.0000    0.0000 O   0  0  0  0  0  2           0  0  0
   -4.7617    1.3655    1.1118 O   0  0  0  0  0  2           0  0  0
   -6.1001   -0.9794    5.6926 O   0  0  0  0  0  2           0  0  0
   -3.4740   -1.1983    4.9216 O   0  0  0  0  0  2           0  0  0
   -7.3809    1.3895    1.8132 O   0  0  0  0  0  2           0  0  0
   -0.4357   -0.0279    2.4913 N   0  0  0  0  0  3           0  0  0
    0.0000    0.0000    0.0000 C   0  0  0  0  0  4           0  0  0
   -0.7930    0.0000    1.1627 C   0  0  0  0  0  4           0  0  0
   -1.5481   -0.0270    3.2856 C   0  0  0  0  0  4           0  0  0
   -2.1935    0.0525    1.1168 C   0  0  0  0  0  4           0  0  0
   -2.6631    0.0264    2.4735 C   0  0  0  0  0  4           0  0  0
   -0.6401    0.1069   -1.2376 C   0  0  0  0  0  4           0  0  0
   -2.8105    0.1198   -0.1546 C   0  0  0  0  0  4           0  0  0
   -2.0271    0.1537   -1.3143 C   0  0  0  0  0  4           0  0  0
   -5.0490    0.7697    2.1477 C   0  0  0  0  0  4           0  0  0
   -5.7820   -0.4755    4.6198 C   0  0  0  0  0  4           0  0  0
   -4.3816   -0.5170    4.1290 C   0  0  0  0  0  4           0  0  0
   -6.4538    0.7619    2.6200 C   0  0  0  0  0  4           0  0  0
    1.9622   -1.2986    0.0000 C   0  0  0  0  0  4           0  0  0
   -4.0112    0.0548    2.9668 C   0  0  0  0  0  4           0  0  0
   -6.7893    0.1833    3.7743 C   0  0  0  0  0  4           0  0  0
  1  7  1  0     0  0
  1 19  1  0     0  0
  2 15  2  0     0  0
  3 16  2  0     0  0
  4 17  1  0     0  0
  5 18  1  0     0  0
  6  8  1  0     0  0
  6  9  1  0     0  0
  7  8  1  0     0  0
  7 12  2  0     0  0
  8 10  2  0     0  0
  9 11  2  0     0  0
 10 11  1  0     0  0
 10 13  1  0     0  0
 11 20  1  0     0  0
 12 14  1  0     0  0
 13 14  2  0     0  0
 15 18  1  0     0  0
 15 20  1  0     0  0
 16 17  1  0     0  0
 16 21  1  0     0  0
 17 20  2  0     0  0
 18 21  2  0     0  0
M  END
> <standard_type>
pIC50

> <# Confs.>
11

> <canonical_smiles>
O=C(C(O)=C1)C(C2=CNC3=C2C=CC=C3OC)=C(O)C1=O

> <standard_relation>
=

> <predicted_activity_value>
4.830325565941193

> <actual_activity_value>
4.823908740944319

> <Compound>
36

> <publication_ID>
nan

> <standard_units>
nM

> hash
17713006289487086535

$$$$
36_
XXILIB    08252103423D 0   0.00000     0.00000

 21 23  0     1  0            999 V2000
    1.3747    0.0000   -0.0000 O   0  0  0  0  0  2           0  0  0
   -4.7617    1.3655    1.1118 O   0  0  0  0  0  2           0  0  0
   -6.1001   -0.9794    5.6926 O   0  0  0  0  0  2           0  0  0
   -3.4740   -1.1983    4.9216 O   0  0  0  0  0  2           0  0  0
   -7.3809    1.3895    1.8132 O   0  0  0  0  0  2           0  0  0
   -0.4357   -0.0279    2.4913 N   0  0  0  0  0  3           0  0  0
    0.0000    0.0000    0.0000 C   0  0  0  0  0  4           0  0  0
   -0.7930    0.0000    1.1627 C   0  0  0  0  0  4           0  0  0
   -1.5481   -0.0270    3.2856 C   0  0  0  0  0  4           0  0  0
   -2.1935    0.0525    1.1168 C   0  0  0  0  0  4           0  0  0
   -2.6631    0.0264    2.4735 C   0  0  0  0  0  4           0  0  0
   -0.6401    0.1069   -1.2376 C   0  0  0  0  0  4           0  0  0
   -2.8105    0.1198   -0.1546 C   0  0  0  0  0  4           0  0  0
   -2.0271    0.1537   -1.3143 C   0  0  0  0  0  4           0  0  0
   -5.0490    0.7697    2.1477 C   0  0  0  0  0  4           0  0  0
   -5.7820   -0.4755    4.6198 C   0  0  0  0  0  4           0  0  0
   -4.3816   -0.5170    4.1290 C   0  0  0  0  0  4           0  0  0
   -6.4538    0.7619    2.6200 C   0  0  0  0  0  4           0  0  0
    1.9622    1.2986    0.0000 C   0  0  0  0  0  4           0  0  0
   -4.0112    0.0548    2.9668 C   0  0  0  0  0  4           0  0  0
   -6.7893    0.1833    3.7743 C   0  0  0  0  0  4           0  0  0
  1  7  1  0     0  0
  1 19  1  0     0  0
  2 15  2  0     0  0
  3 16  2  0     0  0
  4 17  1  0     0  0
  5 18  1  0     0  0
  6  8  1  0     0  0
  6  9  1  0     0  0
  7  8  1  0     0  0
  7 12  2  0     0  0
  8 10  2  0     0  0
  9 11  2  0     0  0
 10 11  1  0     0  0
 10 13  1  0     0  0
 11 20  1  0     0  0
 12 14  1  0     0  0
 13 14  2  0     0  0
 15 18  1  0     0  0
 15 20  1  0     0  0
 16 17  1  0     0  0
 16 21  1  0     0  0
 17 20  2  0     0  0
 18 21  2  0     0  0
M  END
> <standard_type>
pIC50

> <# Confs.>
11

> <canonical_smiles>
O=C(C(O)=C1)C(C2=CNC3=C2C=CC=C3OC)=C(O)C1=O

> <standard_relation>
=

> <predicted_activity_value>
4.830325565941193

> <actual_activity_value>
4.823908740944319

> <Compound>
36

> <publication_ID>
nan

> <standard_units>
nM

> hash
17713006289487086535

$$$$
31_
XXILIB    08252103423D 0   0.00000     0.00000

 20 22  0     1  0            999 V2000
    0.3970    0.0714   -3.1141 F   0  0  0  0  0  1           0  0  0
    1.4754   -2.3899    0.0107 O   0  0  0  0  0  2           0  0  0
    4.3454    2.0887    0.0625 O   0  0  0  0  0  2           0  0  0
    1.6600    2.4023   -0.0009 O   0  0  0  0  0  2           0  0  0
    4.2168   -2.6076   -0.0177 O   0  0  0  0  0  2           0  0  0
   -2.0827   -0.0183    0.7965 N   0  0  0  0  0  3           0  0  0
   -0.8018    0.0299   -2.5166 C   0  0  0  0  0  4           0  0  0
   -2.2057   -0.0144   -0.5722 C   0  0  0  0  0  4           0  0  0
   -0.7631    0.0000    1.1520 C   0  0  0  0  0  4           0  0  0
   -0.9120    0.0032   -1.1088 C   0  0  0  0  0  4           0  0  0
    0.0000    0.0000    0.0000 C   0  0  0  0  0  4           0  0  0
   -1.9418    0.0254   -3.3249 C   0  0  0  0  0  4           0  0  0
   -3.3626   -0.0218   -1.3633 C   0  0  0  0  0  4           0  0  0
   -3.2072   -0.0032   -2.7510 C   0  0  0  0  0  4           0  0  0
    2.1122   -1.3387    0.0000 C   0  0  0  0  0  4           0  0  0
    3.6658    1.0668    0.0349 C   0  0  0  0  0  4           0  0  0
    2.1817    1.1216    0.0161 C   0  0  0  0  0  4           0  0  0
    3.5931   -1.3767   -0.0027 C   0  0  0  0  0  4           0  0  0
    1.4317   -0.0000    0.0000 C   0  0  0  0  0  4           0  0  0
    4.3111   -0.2549    0.0150 C   0  0  0  0  0  4           0  0  0
  1  7  1  0     0  0
  2 15  2  0     0  0
  3 16  2  0     0  0
  4 17  1  0     0  0
  5 18  1  0     0  0
  6  8  1  0     0  0
  6  9  1  0     0  0
  7 10  2  0     0  0
  7 12  1  0     0  0
  8 10  1  0     0  0
  8 13  2  0     0  0
  9 11  2  0     0  0
 10 11  1  0     0  0
 11 19  1  0     0  0
 12 14  2  0     0  0
 13 14  1  0     0  0
 15 18  1  0     0  0
 15 19  1  0     0  0
 16 17  1  0     0  0
 16 20  1  0     0  0
 17 19  2  0     0  0
 18 20  2  0     0  0
M  END
> <standard_type>
pIC50

> <# Confs.>
2

> <canonical_smiles>
O=C(C(O)=C1)C(C2=CNC3=CC=CC(F)=C32)=C(O)C1=O

> <standard_relation>
=

> <predicted_activity_value>
5.311580177997289

> <actual_activity_value>
5.301029995663981

> <Compound>
31

> <publication_ID>
nan

> <standard_units>
nM

> hash
3718589860392902150

$$$$
31_
XXILIB    08252103423D 0   0.00000     0.00000

 20 22  0     1  0            999 V2000
    0.3970    0.0714   -3.1141 F   0  0  0  0  0  1           0  0  0
    1.4754    2.3899   -0.0107 O   0  0  0  0  0  2           0  0  0
    4.3454   -2.0887   -0.0625 O   0  0  0  0  0  2           0  0  0
    1.6600   -2.4023    0.0009 O   0  0  0  0  0  2           0  0  0
    4.2168    2.6076    0.0177 O   0  0  0  0  0  2           0  0  0
   -2.0827   -0.0183    0.7965 N   0  0  0  0  0  3           0  0  0
   -0.8018    0.0299   -2.5166 C   0  0  0  0  0  4           0  0  0
   -2.2057   -0.0144   -0.5722 C   0  0  0  0  0  4           0  0  0
   -0.7631    0.0000    1.1520 C   0  0  0  0  0  4           0  0  0
   -0.9120    0.0032   -1.1088 C   0  0  0  0  0  4           0  0  0
    0.0000    0.0000    0.0000 C   0  0  0  0  0  4           0  0  0
   -1.9418    0.0254   -3.3249 C   0  0  0  0  0  4           0  0  0
   -3.3626   -0.0218   -1.3633 C   0  0  0  0  0  4           0  0  0
   -3.2072   -0.0032   -2.7510 C   0  0  0  0  0  4           0  0  0
    2.1122    1.3387    0.0000 C   0  0  0  0  0  4           0  0  0
    3.6658   -1.0668   -0.0349 C   0  0  0  0  0  4           0  0  0
    2.1817   -1.1216   -0.0161 C   0  0  0  0  0  4           0  0  0
    3.5931    1.3767    0.0027 C   0  0  0  0  0  4           0  0  0
    1.4317    0.0000    0.0000 C   0  0  0  0  0  4           0  0  0
    4.3111    0.2549   -0.0150 C   0  0  0  0  0  4           0  0  0
  1  7  1  0     0  0
  2 15  2  0     0  0
  3 16  2  0     0  0
  4 17  1  0     0  0
  5 18  1  0     0  0
  6  8  1  0     0  0
  6  9  1  0     0  0
  7 10  2  0     0  0
  7 12  1  0     0  0
  8 10  1  0     0  0
  8 13  2  0     0  0
  9 11  2  0     0  0
 10 11  1  0     0  0
 11 19  1  0     0  0
 12 14  2  0     0  0
 13 14  1  0     0  0
 15 18  1  0     0  0
 15 19  1  0     0  0
 16 17  1  0     0  0
 16 20  1  0     0  0
 17 19  2  0     0  0
 18 20  2  0     0  0
M  END
> <standard_type>
pIC50

> <# Confs.>
2

> <canonical_smiles>
O=C(C(O)=C1)C(C2=CNC3=CC=CC(F)=C32)=C(O)C1=O

> <standard_relation>
=

> <predicted_activity_value>
5.311580177997289

> <actual_activity_value>
5.301029995663981

> <Compound>
31

> <publication_ID>
nan

> <standard_units>
nM

> hash
3718589860392902150

$$$$
23_
XXILIB    08252103423D 0   0.00000     0.00000

 36 38  0     1  0            999 V2000
  -12.4521   -2.5849    7.3656 Br  0  0  0  0  0  1           0  0  0
  -10.4888   -0.0133    8.4784 O   0  0  0  0  0  2           0  0  0
   -9.9363   -0.0350    3.8072 O   0  0  0  0  0  2           0  0  0
   -6.9384   -0.0000    3.1127 O   0  0  0  0  0  2           0  0  0
   -7.4262   -0.0163    7.5624 N   0  0  0  0  0  3           0  0  0
   -6.4357   -0.0128    6.6355 N   0  0  0  0  0  3           0  0  0
  -10.6669   -0.0241    6.0912 N   0  0  2  0  0  3           0  0  0
  -12.9672   -1.0214    6.4045 C   0  0  0  0  0  4           0  0  0
   -8.6465   -0.0188    6.9944 C   0  0  0  0  0  4           0  0  0
   -7.0792   -0.0127    5.4470 C   0  0  0  0  0  4           0  0  0
  -12.0879   -0.0252    5.9239 C   0  0  0  0  0  4           0  0  0
   -8.4634   -0.0213    5.6478 C   0  0  0  0  0  4           0  0  0
  -14.3541   -0.9156    6.1860 C   0  0  0  0  0  4           0  0  0
  -12.6679    1.0567    5.2219 C   0  0  0  0  0  4           0  0  0
  -14.8900    0.1635    5.4911 C   0  0  0  0  0  4           0  0  0
  -14.0457    1.1499    5.0079 C   0  0  0  0  0  4           0  0  0
  -10.0256   -0.0188    7.3492 C   0  0  0  0  0  4           0  0  0
   -9.7516   -0.0275    5.0130 C   0  0  0  0  0  4           0  0  0
   -6.3442   -0.0000    4.1907 C   0  0  0  0  0  4           0  0  0
   -4.8306    0.0000    4.2191 C   0  0  0  0  0  4           0  0  0
   -4.2380   -0.0000    2.8129 C   0  0  0  0  0  4           0  0  0
   -2.7117    0.0000    2.8129 C   0  0  0  0  0  4           0  0  0
   -2.1190   -0.0000    1.4064 C   0  0  0  0  0  4           0  0  0
   -0.5927    0.0000    1.4064 C   0  0  0  0  0  4           0  0  0
    0.0000   -0.0000    0.0000 C   0  0  0  0  0  4           0  0  0
    1.5260    0.0000    0.0000 C   0  0  0  0  0  4           0  0  0
    2.1188    0.0000   -1.4064 C   0  0  0  0  0  4           0  0  0
    3.6450    0.0000   -1.4064 C   0  0  0  0  0  4           0  0  0
    4.2378    0.0000   -2.8129 C   0  0  0  0  0  4           0  0  0
    5.7640    0.0000   -2.8129 C   0  0  0  0  0  4           0  0  0
    6.3567    0.0000   -4.2193 C   0  0  0  0  0  4           0  0  0
    7.8830    0.0000   -4.2193 C   0  0  0  0  0  4           0  0  0
    8.4757    0.0000   -5.6258 C   0  0  0  0  0  4           0  0  0
   10.0019    0.0000   -5.6258 C   0  0  0  0  0  4           0  0  0
   10.5947    0.0000   -7.0322 C   0  0  0  0  0  4           0  0  0
   12.1162    0.0000   -7.0310 C   0  0  0  0  0  4           0  0  0
  1  8  1  0     0  0
  2 17  2  0     0  0
  3 18  2  0     0  0
  4 19  2  0     0  0
  5  6  1  0     0  0
  5  9  1  0     0  0
  6 10  2  0     0  0
  7 11  1  0     0  0
  7 17  1  0     0  0
  7 18  1  0     0  0
  8 11  2  0     0  0
  8 13  1  0     0  0
  9 12  2  0     0  0
  9 17  1  0     0  0
 10 12  1  0     0  0
 10 19  1  0     0  0
 11 14  1  0     0  0
 12 18  1  0     0  0
 13 15  2  0     0  0
 14 16  2  0     0  0
 15 16  1  0     0  0
 19 20  1  0     0  0
 20 21  1  0     0  0
 21 22  1  0     0  0
 22 23  1  0     0  0
 23 24  1  0     0  0
 24 25  1  0     0  0
 25 26  1  0     0  0
 26 27  1  0     0  0
 27 28  1  0     0  0
 28 29  1  0     0  0
 29 30  1  0     0  0
 30 31  1  0     0  0
 31 32  1  0     0  0
 32 33  1  0     0  0
 33 34  1  0     0  0
 34 35  1  0     0  0
 35 36  1  0     0  0
M  END
> <standard_type>
pIC50

> <# Confs.>
25

> <canonical_smiles>
BrC1=C(N2C(C(C(C(CCCCCCCCCCCCCCCCC)=O)=NN3)=C3C2=O)=O)C=CC=C1

> <standard_relation>
=

> <predicted_activity_value>
6.638272163982407

> <actual_activity_value>
6.6020599913279625

> <Compound>
23

> <publication_ID>
nan

> <standard_units>
nM

> hash
2370216192129740831

$$$$
23_
XXILIB    08252103423D 0   0.00000     0.00000

 36 38  0     1  0            999 V2000
  -12.4567    2.5313    7.3702 Br  0  0  0  0  0  1           0  0  0
  -10.4888   -0.0133    8.4784 O   0  0  0  0  0  2           0  0  0
   -9.9363   -0.0350    3.8072 O   0  0  0  0  0  2           0  0  0
   -6.9384   -0.0000    3.1127 O   0  0  0  0  0  2           0  0  0
   -7.4262   -0.0163    7.5624 N   0  0  0  0  0  3           0  0  0
   -6.4357   -0.0128    6.6355 N   0  0  0  0  0  3           0  0  0
  -10.6669   -0.0241    6.0912 N   0  0  2  0  0  3           0  0  0
  -12.9678    0.9743    6.3964 C   0  0  0  0  0  4           0  0  0
   -8.6465   -0.0188    6.9944 C   0  0  0  0  0  4           0  0  0
   -7.0792   -0.0127    5.4470 C   0  0  0  0  0  4           0  0  0
  -12.0879   -0.0252    5.9239 C   0  0  0  0  0  4           0  0  0
   -8.4634   -0.0213    5.6478 C   0  0  0  0  0  4           0  0  0
  -14.3534    0.8723    6.1676 C   0  0  0  0  0  4           0  0  0
  -12.6670   -1.1120    5.2288 C   0  0  0  0  0  4           0  0  0
  -14.8883   -0.2113    5.4792 C   0  0  0  0  0  4           0  0  0
  -14.0441   -1.2048    5.0103 C   0  0  0  0  0  4           0  0  0
  -10.0256   -0.0188    7.3492 C   0  0  0  0  0  4           0  0  0
   -9.7516   -0.0275    5.0130 C   0  0  0  0  0  4           0  0  0
   -6.3442   -0.0000    4.1907 C   0  0  0  0  0  4           0  0  0
   -4.8306    0.0000    4.2191 C   0  0  0  0  0  4           0  0  0
   -4.2380   -0.0000    2.8129 C   0  0  0  0  0  4           0  0  0
   -2.7117    0.0000    2.8129 C   0  0  0  0  0  4           0  0  0
   -2.1190   -0.0000    1.4064 C   0  0  0  0  0  4           0  0  0
   -0.5927    0.0000    1.4064 C   0  0  0  0  0  4           0  0  0
    0.0000   -0.0000    0.0000 C   0  0  0  0  0  4           0  0  0
    1.5260    0.0000    0.0000 C   0  0  0  0  0  4           0  0  0
    2.1188    0.0000   -1.4064 C   0  0  0  0  0  4           0  0  0
    3.6450    0.0000   -1.4064 C   0  0  0  0  0  4           0  0  0
    4.2378    0.0000   -2.8129 C   0  0  0  0  0  4           0  0  0
    5.7640    0.0000   -2.8129 C   0  0  0  0  0  4           0  0  0
    6.3567    0.0000   -4.2193 C   0  0  0  0  0  4           0  0  0
    7.8830    0.0000   -4.2193 C   0  0  0  0  0  4           0  0  0
    8.4757    0.0000   -5.6258 C   0  0  0  0  0  4           0  0  0
   10.0019    0.0000   -5.6258 C   0  0  0  0  0  4           0  0  0
   10.5947    0.0000   -7.0322 C   0  0  0  0  0  4           0  0  0
   12.1162    0.0000   -7.0310 C   0  0  0  0  0  4           0  0  0
  1  8  1  0     0  0
  2 17  2  0     0  0
  3 18  2  0     0  0
  4 19  2  0     0  0
  5  6  1  0     0  0
  5  9  1  0     0  0
  6 10  2  0     0  0
  7 11  1  0     0  0
  7 17  1  0     0  0
  7 18  1  0     0  0
  8 11  2  0     0  0
  8 13  1  0     0  0
  9 12  2  0     0  0
  9 17  1  0     0  0
 10 12  1  0     0  0
 10 19  1  0     0  0
 11 14  1  0     0  0
 12 18  1  0     0  0
 13 15  2  0     0  0
 14 16  2  0     0  0
 15 16  1  0     0  0
 19 20  1  0     0  0
 20 21  1  0     0  0
 21 22  1  0     0  0
 22 23  1  0     0  0
 23 24  1  0     0  0
 24 25  1  0     0  0
 25 26  1  0     0  0
 26 27  1  0     0  0
 27 28  1  0     0  0
 28 29  1  0     0  0
 29 30  1  0     0  0
 30 31  1  0     0  0
 31 32  1  0     0  0
 32 33  1  0     0  0
 33 34  1  0     0  0
 34 35  1  0     0  0
 35 36  1  0     0  0
M  END
> <standard_type>
pIC50

> <# Confs.>
25

> <canonical_smiles>
BrC1=C(N2C(C(C(C(CCCCCCCCCCCCCCCCC)=O)=NN3)=C3C2=O)=O)C=CC=C1

> <standard_relation>
=

> <predicted_activity_value>
6.638272163982407

> <actual_activity_value>
6.6020599913279625

> <Compound>
23

> <publication_ID>
nan

> <standard_units>
nM

> hash
2370216192129740831

$$$$
23_
XXILIB    08252103423D 0   0.00000     0.00000

 36 38  0     1  0            999 V2000
  -12.3416   -3.2893    1.4924 Br  0  0  0  0  0  1           0  0  0
  -10.4064   -4.3649    4.1009 O   0  0  0  0  0  2           0  0  0
   -9.9415    0.3158    4.0880 O   0  0  0  0  0  2           0  0  0
   -6.9585    1.0666    4.1791 O   0  0  0  0  0  2           0  0  0
   -7.3621   -3.3915    4.1552 N   0  0  0  0  0  3           0  0  0
   -6.3895   -2.4462    4.1770 N   0  0  0  0  0  3           0  0  0
  -10.6292   -1.9815    4.0860 N   0  0  2  0  0  3           0  0  0
  -12.9040   -2.3380    3.0457 C   0  0  0  0  0  4           0  0  0
   -8.5926   -2.8466    4.1295 C   0  0  0  0  0  4           0  0  0
   -7.0551   -1.2699    4.1646 C   0  0  0  0  0  4           0  0  0
  -12.0528   -1.8410    4.0581 C   0  0  0  0  0  4           0  0  0
   -8.4349   -1.4967    4.1300 C   0  0  0  0  0  4           0  0  0
  -14.2965   -2.1457    3.1253 C   0  0  0  0  0  4           0  0  0
  -12.6661   -1.1500    5.1286 C   0  0  0  0  0  4           0  0  0
  -14.8656   -1.4610    4.1939 C   0  0  0  0  0  4           0  0  0
  -14.0492   -0.9619    5.1958 C   0  0  0  0  0  4           0  0  0
   -9.9645   -3.2273    4.1038 C   0  0  0  0  0  4           0  0  0
   -9.7344   -0.8863    4.0994 C   0  0  0  0  0  4           0  0  0
   -6.3442   -0.0000    4.1907 C   0  0  0  0  0  4           0  0  0
   -4.8306    0.0000    4.2191 C   0  0  0  0  0  4           0  0  0
   -4.2380   -0.0000    2.8129 C   0  0  0  0  0  4           0  0  0
   -2.7117    0.0000    2.8129 C   0  0  0  0  0  4           0  0  0
   -2.1190   -0.0000    1.4064 C   0  0  0  0  0  4           0  0  0
   -0.5927    0.0000    1.4064 C   0  0  0  0  0  4           0  0  0
    0.0000   -0.0000    0.0000 C   0  0  0  0  0  4           0  0  0
    1.5260    0.0000    0.0000 C   0  0  0  0  0  4           0  0  0
    2.1188    0.0000   -1.4064 C   0  0  0  0  0  4           0  0  0
    3.6450    0.0000   -1.4064 C   0  0  0  0  0  4           0  0  0
    4.2378    0.0000   -2.8129 C   0  0  0  0  0  4           0  0  0
    5.7640    0.0000   -2.8129 C   0  0  0  0  0  4           0  0  0
    6.3567    0.0000   -4.2193 C   0  0  0  0  0  4           0  0  0
    7.8830    0.0000   -4.2193 C   0  0  0  0  0  4           0  0  0
    8.4757    0.0000   -5.6258 C   0  0  0  0  0  4           0  0  0
   10.0019    0.0000   -5.6258 C   0  0  0  0  0  4           0  0  0
   10.5947    0.0000   -7.0322 C   0  0  0  0  0  4           0  0  0
   12.1162    0.0000   -7.0310 C   0  0  0  0  0  4           0  0  0
  1  8  1  0     0  0
  2 17  2  0     0  0
  3 18  2  0     0  0
  4 19  2  0     0  0
  5  6  1  0     0  0
  5  9  1  0     0  0
  6 10  2  0     0  0
  7 11  1  0     0  0
  7 17  1  0     0  0
  7 18  1  0     0  0
  8 11  2  0     0  0
  8 13  1  0     0  0
  9 12  2  0     0  0
  9 17  1  0     0  0
 10 12  1  0     0  0
 10 19  1  0     0  0
 11 14  1  0     0  0
 12 18  1  0     0  0
 13 15  2  0     0  0
 14 16  2  0     0  0
 15 16  1  0     0  0
 19 20  1  0     0  0
 20 21  1  0     0  0
 21 22  1  0     0  0
 22 23  1  0     0  0
 23 24  1  0     0  0
 24 25  1  0     0  0
 25 26  1  0     0  0
 26 27  1  0     0  0
 27 28  1  0     0  0
 28 29  1  0     0  0
 29 30  1  0     0  0
 30 31  1  0     0  0
 31 32  1  0     0  0
 32 33  1  0     0  0
 33 34  1  0     0  0
 34 35  1  0     0  0
 35 36  1  0     0  0
M  END
> <standard_type>
pIC50

> <# Confs.>
25

> <canonical_smiles>
BrC1=C(N2C(C(C(C(CCCCCCCCCCCCCCCCC)=O)=NN3)=C3C2=O)=O)C=CC=C1

> <standard_relation>
=

> <predicted_activity_value>
6.638272163982407

> <actual_activity_value>
6.6020599913279625

> <Compound>
23

> <publication_ID>
nan

> <standard_units>
nM

> hash
2370216192129740831

$$$$
23_
XXILIB    08252103423D 0   0.00000     0.00000

 36 38  0     1  0            999 V2000
  -12.4389    3.2893    6.6614 Br  0  0  0  0  0  1           0  0  0
  -10.4069    4.3649    4.1275 O   0  0  0  0  0  2           0  0  0
   -9.9429   -0.3158    4.1579 O   0  0  0  0  0  2           0  0  0
   -6.9585   -1.0666    4.1791 O   0  0  0  0  0  2           0  0  0
   -7.3628    3.3915    4.1878 N   0  0  0  0  0  3           0  0  0
   -6.3899    2.4462    4.2026 N   0  0  0  0  0  3           0  0  0
  -10.6301    1.9815    4.1341 N   0  0  2  0  0  3           0  0  0
  -12.9425    2.3380    5.0881 C   0  0  0  0  0  4           0  0  0
   -8.5933    2.8466    4.1672 C   0  0  0  0  0  4           0  0  0
   -7.0555    1.2699    4.1899 C   0  0  0  0  0  4           0  0  0
  -12.0538    1.8410    4.1084 C   0  0  0  0  0  4           0  0  0
   -8.4357    1.4967    4.1726 C   0  0  0  0  0  4           0  0  0
  -14.3310    2.1457    4.9561 C   0  0  0  0  0  4           0  0  0
  -12.6264    1.1500    3.0156 C   0  0  0  0  0  4           0  0  0
  -14.8594    1.4610    3.8669 C   0  0  0  0  0  4           0  0  0
  -14.0059    0.9619    2.8964 C   0  0  0  0  0  4           0  0  0
   -9.9652    3.2273    4.1413 C   0  0  0  0  0  4           0  0  0
   -9.7354    0.8863    4.1543 C   0  0  0  0  0  4           0  0  0
   -6.3442   -0.0000    4.1907 C   0  0  0  0  0  4           0  0  0
   -4.8306    0.0000    4.2191 C   0  0  0  0  0  4           0  0  0
   -4.2380   -0.0000    2.8129 C   0  0  0  0  0  4           0  0  0
   -2.7117    0.0000    2.8129 C   0  0  0  0  0  4           0  0  0
   -2.1190   -0.0000    1.4064 C   0  0  0  0  0  4           0  0  0
   -0.5927    0.0000    1.4064 C   0  0  0  0  0  4           0  0  0
    0.0000   -0.0000    0.0000 C   0  0  0  0  0  4           0  0  0
    1.5260    0.0000    0.0000 C   0  0  0  0  0  4           0  0  0
    2.1188    0.0000   -1.4064 C   0  0  0  0  0  4           0  0  0
    3.6450    0.0000   -1.4064 C   0  0  0  0  0  4           0  0  0
    4.2378    0.0000   -2.8129 C   0  0  0  0  0  4           0  0  0
    5.7640    0.0000   -2.8129 C   0  0  0  0  0  4           0  0  0
    6.3567    0.0000   -4.2193 C   0  0  0  0  0  4           0  0  0
    7.8830    0.0000   -4.2193 C   0  0  0  0  0  4           0  0  0
    8.4757    0.0000   -5.6258 C   0  0  0  0  0  4           0  0  0
   10.0019    0.0000   -5.6258 C   0  0  0  0  0  4           0  0  0
   10.5947    0.0000   -7.0322 C   0  0  0  0  0  4           0  0  0
   12.1162    0.0000   -7.0310 C   0  0  0  0  0  4           0  0  0
  1  8  1  0     0  0
  2 17  2  0     0  0
  3 18  2  0     0  0
  4 19  2  0     0  0
  5  6  1  0     0  0
  5  9  1  0     0  0
  6 10  2  0     0  0
  7 11  1  0     0  0
  7 17  1  0     0  0
  7 18  1  0     0  0
  8 11  2  0     0  0
  8 13  1  0     0  0
  9 12  2  0     0  0
  9 17  1  0     0  0
 10 12  1  0     0  0
 10 19  1  0     0  0
 11 14  1  0     0  0
 12 18  1  0     0  0
 13 15  2  0     0  0
 14 16  2  0     0  0
 15 16  1  0     0  0
 19 20  1  0     0  0
 20 21  1  0     0  0
 21 22  1  0     0  0
 22 23  1  0     0  0
 23 24  1  0     0  0
 24 25  1  0     0  0
 25 26  1  0     0  0
 26 27  1  0     0  0
 27 28  1  0     0  0
 28 29  1  0     0  0
 29 30  1  0     0  0
 30 31  1  0     0  0
 31 32  1  0     0  0
 32 33  1  0     0  0
 33 34  1  0     0  0
 34 35  1  0     0  0
 35 36  1  0     0  0
M  END
> <standard_type>
pIC50

> <# Confs.>
25

> <canonical_smiles>
BrC1=C(N2C(C(C(C(CCCCCCCCCCCCCCCCC)=O)=NN3)=C3C2=O)=O)C=CC=C1

> <standard_relation>
=

> <predicted_activity_value>
6.638272163982407

> <actual_activity_value>
6.6020599913279625

> <Compound>
23

> <publication_ID>
nan

> <standard_units>
nM

> hash
2370216192129740831

$$$$
23_
XXILIB    08252103423D 0   0.00000     0.00000

 36 38  0     1  0            999 V2000
  -12.4423   -3.2940    6.6077 Br  0  0  0  0  0  1           0  0  0
  -10.4064   -4.3649    4.1009 O   0  0  0  0  0  2           0  0  0
   -9.9415    0.3158    4.0880 O   0  0  0  0  0  2           0  0  0
   -6.9585    1.0666    4.1791 O   0  0  0  0  0  2           0  0  0
   -7.3621   -3.3915    4.1552 N   0  0  0  0  0  3           0  0  0
   -6.3895   -2.4462    4.1770 N   0  0  0  0  0  3           0  0  0
  -10.6292   -1.9815    4.0860 N   0  0  2  0  0  3           0  0  0
  -12.9423   -2.3299    5.0410 C   0  0  0  0  0  4           0  0  0
   -8.5926   -2.8466    4.1295 C   0  0  0  0  0  4           0  0  0
   -7.0551   -1.2699    4.1646 C   0  0  0  0  0  4           0  0  0
  -12.0528   -1.8410    4.0581 C   0  0  0  0  0  4           0  0  0
   -8.4349   -1.4967    4.1300 C   0  0  0  0  0  4           0  0  0
  -14.3297   -2.1273    4.9129 C   0  0  0  0  0  4           0  0  0
  -12.6243   -1.1569    2.9603 C   0  0  0  0  0  4           0  0  0
  -14.8571   -1.4490    3.8191 C   0  0  0  0  0  4           0  0  0
  -14.0033   -0.9643    2.8416 C   0  0  0  0  0  4           0  0  0
   -9.9645   -3.2273    4.1038 C   0  0  0  0  0  4           0  0  0
   -9.7344   -0.8863    4.0994 C   0  0  0  0  0  4           0  0  0
   -6.3442   -0.0000    4.1907 C   0  0  0  0  0  4           0  0  0
   -4.8306    0.0000    4.2191 C   0  0  0  0  0  4           0  0  0
   -4.2380   -0.0000    2.8129 C   0  0  0  0  0  4           0  0  0
   -2.7117    0.0000    2.8129 C   0  0  0  0  0  4           0  0  0
   -2.1190   -0.0000    1.4064 C   0  0  0  0  0  4           0  0  0
   -0.5927    0.0000    1.4064 C   0  0  0  0  0  4           0  0  0
    0.0000   -0.0000    0.0000 C   0  0  0  0  0  4           0  0  0
    1.5260    0.0000    0.0000 C   0  0  0  0  0  4           0  0  0
    2.1188    0.0000   -1.4064 C   0  0  0  0  0  4           0  0  0
    3.6450    0.0000   -1.4064 C   0  0  0  0  0  4           0  0  0
    4.2378    0.0000   -2.8129 C   0  0  0  0  0  4           0  0  0
    5.7640    0.0000   -2.8129 C   0  0  0  0  0  4           0  0  0
    6.3567    0.0000   -4.2193 C   0  0  0  0  0  4           0  0  0
    7.8830    0.0000   -4.2193 C   0  0  0  0  0  4           0  0  0
    8.4757    0.0000   -5.6258 C   0  0  0  0  0  4           0  0  0
   10.0019    0.0000   -5.6258 C   0  0  0  0  0  4           0  0  0
   10.5947    0.0000   -7.0322 C   0  0  0  0  0  4           0  0  0
   12.1162    0.0000   -7.0310 C   0  0  0  0  0  4           0  0  0
  1  8  1  0     0  0
  2 17  2  0     0  0
  3 18  2  0     0  0
  4 19  2  0     0  0
  5  6  1  0     0  0
  5  9  1  0     0  0
  6 10  2  0     0  0
  7 11  1  0     0  0
  7 17  1  0     0  0
  7 18  1  0     0  0
  8 11  2  0     0  0
  8 13  1  0     0  0
  9 12  2  0     0  0
  9 17  1  0     0  0
 10 12  1  0     0  0
 10 19  1  0     0  0
 11 14  1  0     0  0
 12 18  1  0     0  0
 13 15  2  0     0  0
 14 16  2  0     0  0
 15 16  1  0     0  0
 19 20  1  0     0  0
 20 21  1  0     0  0
 21 22  1  0     0  0
 22 23  1  0     0  0
 23 24  1  0     0  0
 24 25  1  0     0  0
 25 26  1  0     0  0
 26 27  1  0     0  0
 27 28  1  0     0  0
 28 29  1  0     0  0
 29 30  1  0     0  0
 30 31  1  0     0  0
 31 32  1  0     0  0
 32 33  1  0     0  0
 33 34  1  0     0  0
 34 35  1  0     0  0
 35 36  1  0     0  0
M  END
> <standard_type>
pIC50

> <# Confs.>
25

> <canonical_smiles>
BrC1=C(N2C(C(C(C(CCCCCCCCCCCCCCCCC)=O)=NN3)=C3C2=O)=O)C=CC=C1

> <standard_relation>
=

> <predicted_activity_value>
6.638272163982407

> <actual_activity_value>
6.6020599913279625

> <Compound>
23

> <publication_ID>
nan

> <standard_units>
nM

> hash
2370216192129740831

$$$$
23_
XXILIB    08252103423D 0   0.00000     0.00000

 36 38  0     1  0            999 V2000
  -12.3471    3.2940    1.5460 Br  0  0  0  0  0  1           0  0  0
  -10.4069    4.3649    4.1275 O   0  0  0  0  0  2           0  0  0
   -9.9429   -0.3158    4.1579 O   0  0  0  0  0  2           0  0  0
   -6.9585   -1.0666    4.1791 O   0  0  0  0  0  2           0  0  0
   -7.3628    3.3915    4.1878 N   0  0  0  0  0  3           0  0  0
   -6.3899    2.4462    4.2026 N   0  0  0  0  0  3           0  0  0
  -10.6301    1.9815    4.1341 N   0  0  2  0  0  3           0  0  0
  -12.9057    2.3299    3.0927 C   0  0  0  0  0  4           0  0  0
   -8.5933    2.8466    4.1672 C   0  0  0  0  0  4           0  0  0
   -7.0555    1.2699    4.1899 C   0  0  0  0  0  4           0  0  0
  -12.0538    1.8410    4.1084 C   0  0  0  0  0  4           0  0  0
   -8.4357    1.4967    4.1726 C   0  0  0  0  0  4           0  0  0
  -14.2969    2.1273    3.1686 C   0  0  0  0  0  4           0  0  0
  -12.6662    1.1569    5.1839 C   0  0  0  0  0  4           0  0  0
  -14.8650    1.4490    4.2417 C   0  0  0  0  0  4           0  0  0
  -14.0486    0.9643    5.2507 C   0  0  0  0  0  4           0  0  0
   -9.9652    3.2273    4.1413 C   0  0  0  0  0  4           0  0  0
   -9.7354    0.8863    4.1543 C   0  0  0  0  0  4           0  0  0
   -6.3442   -0.0000    4.1907 C   0  0  0  0  0  4           0  0  0
   -4.8306    0.0000    4.2191 C   0  0  0  0  0  4           0  0  0
   -4.2380   -0.0000    2.8129 C   0  0  0  0  0  4           0  0  0
   -2.7117    0.0000    2.8129 C   0  0  0  0  0  4           0  0  0
   -2.1190   -0.0000    1.4064 C   0  0  0  0  0  4           0  0  0
   -0.5927    0.0000    1.4064 C   0  0  0  0  0  4           0  0  0
    0.0000   -0.0000    0.0000 C   0  0  0  0  0  4           0  0  0
    1.5260    0.0000    0.0000 C   0  0  0  0  0  4           0  0  0
    2.1188    0.0000   -1.4064 C   0  0  0  0  0  4           0  0  0
    3.6450    0.0000   -1.4064 C   0  0  0  0  0  4           0  0  0
    4.2378    0.0000   -2.8129 C   0  0  0  0  0  4           0  0  0
    5.7640    0.0000   -2.8129 C   0  0  0  0  0  4           0  0  0
    6.3567    0.0000   -4.2193 C   0  0  0  0  0  4           0  0  0
    7.8830    0.0000   -4.2193 C   0  0  0  0  0  4           0  0  0
    8.4757    0.0000   -5.6258 C   0  0  0  0  0  4           0  0  0
   10.0019    0.0000   -5.6258 C   0  0  0  0  0  4           0  0  0
   10.5947    0.0000   -7.0322 C   0  0  0  0  0  4           0  0  0
   12.1162    0.0000   -7.0310 C   0  0  0  0  0  4           0  0  0
  1  8  1  0     0  0
  2 17  2  0     0  0
  3 18  2  0     0  0
  4 19  2  0     0  0
  5  6  1  0     0  0
  5  9  1  0     0  0
  6 10  2  0     0  0
  7 11  1  0     0  0
  7 17  1  0     0  0
  7 18  1  0     0  0
  8 11  2  0     0  0
  8 13  1  0     0  0
  9 12  2  0     0  0
  9 17  1  0     0  0
 10 12  1  0     0  0
 10 19  1  0     0  0
 11 14  1  0     0  0
 12 18  1  0     0  0
 13 15  2  0     0  0
 14 16  2  0     0  0
 15 16  1  0     0  0
 19 20  1  0     0  0
 20 21  1  0     0  0
 21 22  1  0     0  0
 22 23  1  0     0  0
 23 24  1  0     0  0
 24 25  1  0     0  0
 25 26  1  0     0  0
 26 27  1  0     0  0
 27 28  1  0     0  0
 28 29  1  0     0  0
 29 30  1  0     0  0
 30 31  1  0     0  0
 31 32  1  0     0  0
 32 33  1  0     0  0
 33 34  1  0     0  0
 34 35  1  0     0  0
 35 36  1  0     0  0
M  END
> <standard_type>
pIC50

> <# Confs.>
25

> <canonical_smiles>
BrC1=C(N2C(C(C(C(CCCCCCCCCCCCCCCCC)=O)=NN3)=C3C2=O)=O)C=CC=C1

> <standard_relation>
=

> <predicted_activity_value>
6.638272163982407

> <actual_activity_value>
6.6020599913279625

> <Compound>
23

> <publication_ID>
nan

> <standard_units>
nM

> hash
2370216192129740831

$$$$
23_
XXILIB    08252103423D 0   0.00000     0.00000

 36 38  0     1  0            999 V2000
   -3.9356    8.5559    5.0351 Br  0  0  0  0  0  1           0  0  0
   -6.7241    6.6720    5.6528 O   0  0  0  0  0  2           0  0  0
   -3.1090    3.9650    6.9675 O   0  0  0  0  0  2           0  0  0
   -3.3754    1.1783    5.6892 O   0  0  0  0  0  2           0  0  0
   -6.8098    3.7376    4.3879 N   0  0  0  0  0  3           0  0  0
   -6.3334    2.4813    4.2007 N   0  0  0  0  0  3           0  0  0
   -4.7530    5.6631    6.5624 N   0  0  2  0  0  3           0  0  0
   -3.8563    8.0067    6.8588 C   0  0  0  0  0  4           0  0  0
   -6.0243    4.4557    5.2119 C   0  0  0  0  0  4           0  0  0
   -5.2058    2.4285    4.9440 C   0  0  0  0  0  4           0  0  0
   -4.2362    6.7384    7.3523 C   0  0  0  0  0  4           0  0  0
   -4.9905    3.6547    5.5816 C   0  0  0  0  0  4           0  0  0
   -3.3644    8.9950    7.7326 C   0  0  0  0  0  4           0  0  0
   -4.0915    6.5223    8.7423 C   0  0  0  0  0  4           0  0  0
   -3.2358    8.7474    9.0952 C   0  0  0  0  0  4           0  0  0
   -3.5988    7.5094    9.6000 C   0  0  0  0  0  4           0  0  0
   -5.9387    5.7495    5.8004 C   0  0  0  0  0  4           0  0  0
   -4.1312    4.3969    6.4608 C   0  0  0  0  0  4           0  0  0
   -4.4009    1.2175    5.0097 C   0  0  0  0  0  4           0  0  0
   -4.8306    0.0000    4.2191 C   0  0  0  0  0  4           0  0  0
   -4.2380    0.0000    2.8129 C   0  0  0  0  0  4           0  0  0
   -2.7117    0.0000    2.8129 C   0  0  0  0  0  4           0  0  0
   -2.1190    0.0000    1.4064 C   0  0  0  0  0  4           0  0  0
   -0.5927    0.0000    1.4064 C   0  0  0  0  0  4           0  0  0
    0.0000    0.0000    0.0000 C   0  0  0  0  0  4           0  0  0
    1.5260    0.0000    0.0000 C   0  0  0  0  0  4           0  0  0
    2.1188    0.0000   -1.4064 C   0  0  0  0  0  4           0  0  0
    3.6450    0.0000   -1.4064 C   0  0  0  0  0  4           0  0  0
    4.2378    0.0000   -2.8129 C   0  0  0  0  0  4           0  0  0
    5.7640    0.0000   -2.8129 C   0  0  0  0  0  4           0  0  0
    6.3567    0.0000   -4.2193 C   0  0  0  0  0  4           0  0  0
    7.8830    0.0000   -4.2193 C   0  0  0  0  0  4           0  0  0
    8.4757    0.0000   -5.6258 C   0  0  0  0  0  4           0  0  0
   10.0019    0.0000   -5.6258 C   0  0  0  0  0  4           0  0  0
   10.5947    0.0000   -7.0322 C   0  0  0  0  0  4           0  0  0
   12.1162    0.0000   -7.0310 C   0  0  0  0  0  4           0  0  0
  1  8  1  0     0  0
  2 17  2  0     0  0
  3 18  2  0     0  0
  4 19  2  0     0  0
  5  6  1  0     0  0
  5  9  1  0     0  0
  6 10  2  0     0  0
  7 11  1  0     0  0
  7 17  1  0     0  0
  7 18  1  0     0  0
  8 11  2  0     0  0
  8 13  1  0     0  0
  9 12  2  0     0  0
  9 17  1  0     0  0
 10 12  1  0     0  0
 10 19  1  0     0  0
 11 14  1  0     0  0
 12 18  1  0     0  0
 13 15  2  0     0  0
 14 16  2  0     0  0
 15 16  1  0     0  0
 19 20  1  0     0  0
 20 21  1  0     0  0
 21 22  1  0     0  0
 22 23  1  0     0  0
 23 24  1  0     0  0
 24 25  1  0     0  0
 25 26  1  0     0  0
 26 27  1  0     0  0
 27 28  1  0     0  0
 28 29  1  0     0  0
 29 30  1  0     0  0
 30 31  1  0     0  0
 31 32  1  0     0  0
 32 33  1  0     0  0
 33 34  1  0     0  0
 34 35  1  0     0  0
 35 36  1  0     0  0
M  END
> <standard_type>
pIC50

> <# Confs.>
25

> <canonical_smiles>
BrC1=C(N2C(C(C(C(CCCCCCCCCCCCCCCCC)=O)=NN3)=C3C2=O)=O)C=CC=C1

> <standard_relation>
=

> <predicted_activity_value>
6.638272163982407

> <actual_activity_value>
6.6020599913279625

> <Compound>
23

> <publication_ID>
nan

> <standard_units>
nM

> hash
2370216192129740831

$$$$
23_
XXILIB    08252103423D 0   0.00000     0.00000

 36 38  0     1  0            999 V2000
   -6.6577    6.9182    9.0455 Br  0  0  0  0  0  1           0  0  0
   -6.7241    6.6720    5.6528 O   0  0  0  0  0  2           0  0  0
   -3.1090    3.9650    6.9675 O   0  0  0  0  0  2           0  0  0
   -3.3754    1.1783    5.6892 O   0  0  0  0  0  2           0  0  0
   -6.8098    3.7376    4.3879 N   0  0  0  0  0  3           0  0  0
   -6.3334    2.4813    4.2007 N   0  0  0  0  0  3           0  0  0
   -4.7530    5.6631    6.5624 N   0  0  2  0  0  3           0  0  0
   -4.9105    7.3621    8.4259 C   0  0  0  0  0  4           0  0  0
   -6.0243    4.4557    5.2119 C   0  0  0  0  0  4           0  0  0
   -5.2058    2.4285    4.9440 C   0  0  0  0  0  4           0  0  0
   -4.2362    6.7384    7.3523 C   0  0  0  0  0  4           0  0  0
   -4.9905    3.6547    5.5816 C   0  0  0  0  0  4           0  0  0
   -4.3002    8.4111    9.1398 C   0  0  0  0  0  4           0  0  0
   -2.9445    7.2216    7.0398 C   0  0  0  0  0  4           0  0  0
   -3.0274    8.8606    8.8046 C   0  0  0  0  0  4           0  0  0
   -2.3495    8.2658    7.7530 C   0  0  0  0  0  4           0  0  0
   -5.9387    5.7495    5.8004 C   0  0  0  0  0  4           0  0  0
   -4.1312    4.3969    6.4608 C   0  0  0  0  0  4           0  0  0
   -4.4009    1.2175    5.0097 C   0  0  0  0  0  4           0  0  0
   -4.8306    0.0000    4.2191 C   0  0  0  0  0  4           0  0  0
   -4.2380    0.0000    2.8129 C   0  0  0  0  0  4           0  0  0
   -2.7117    0.0000    2.8129 C   0  0  0  0  0  4           0  0  0
   -2.1190    0.0000    1.4064 C   0  0  0  0  0  4           0  0  0
   -0.5927    0.0000    1.4064 C   0  0  0  0  0  4           0  0  0
    0.0000    0.0000    0.0000 C   0  0  0  0  0  4           0  0  0
    1.5260    0.0000    0.0000 C   0  0  0  0  0  4           0  0  0
    2.1188    0.0000   -1.4064 C   0  0  0  0  0  4           0  0  0
    3.6450    0.0000   -1.4064 C   0  0  0  0  0  4           0  0  0
    4.2378    0.0000   -2.8129 C   0  0  0  0  0  4           0  0  0
    5.7640    0.0000   -2.8129 C   0  0  0  0  0  4           0  0  0
    6.3567    0.0000   -4.2193 C   0  0  0  0  0  4           0  0  0
    7.8830    0.0000   -4.2193 C   0  0  0  0  0  4           0  0  0
    8.4757    0.0000   -5.6258 C   0  0  0  0  0  4           0  0  0
   10.0019    0.0000   -5.6258 C   0  0  0  0  0  4           0  0  0
   10.5947    0.0000   -7.0322 C   0  0  0  0  0  4           0  0  0
   12.1162    0.0000   -7.0310 C   0  0  0  0  0  4           0  0  0
  1  8  1  0     0  0
  2 17  2  0     0  0
  3 18  2  0     0  0
  4 19  2  0     0  0
  5  6  1  0     0  0
  5  9  1  0     0  0
  6 10  2  0     0  0
  7 11  1  0     0  0
  7 17  1  0     0  0
  7 18  1  0     0  0
  8 11  2  0     0  0
  8 13  1  0     0  0
  9 12  2  0     0  0
  9 17  1  0     0  0
 10 12  1  0     0  0
 10 19  1  0     0  0
 11 14  1  0     0  0
 12 18  1  0     0  0
 13 15  2  0     0  0
 14 16  2  0     0  0
 15 16  1  0     0  0
 19 20  1  0     0  0
 20 21  1  0     0  0
 21 22  1  0     0  0
 22 23  1  0     0  0
 23 24  1  0     0  0
 24 25  1  0     0  0
 25 26  1  0     0  0
 26 27  1  0     0  0
 27 28  1  0     0  0
 28 29  1  0     0  0
 29 30  1  0     0  0
 30 31  1  0     0  0
 31 32  1  0     0  0
 32 33  1  0     0  0
 33 34  1  0     0  0
 34 35  1  0     0  0
 35 36  1  0     0  0
M  END
> <standard_type>
pIC50

> <# Confs.>
25

> <canonical_smiles>
BrC1=C(N2C(C(C(C(CCCCCCCCCCCCCCCCC)=O)=NN3)=C3C2=O)=O)C=CC=C1

> <standard_relation>
=

> <predicted_activity_value>
6.638272163982407

> <actual_activity_value>
6.6020599913279625

> <Compound>
23

> <publication_ID>
nan

> <standard_units>
nM

> hash
2370216192129740831

$$$$
23_
XXILIB    08252103423D 0   0.00000     0.00000

 36 38  0     1  0            999 V2000
   -6.6838   -6.8950    9.0868 Br  0  0  0  0  0  1           0  0  0
   -6.7382   -6.6634    5.6736 O   0  0  0  0  0  2           0  0  0
   -3.1462   -3.9425    7.0223 O   0  0  0  0  0  2           0  0  0
   -3.3754   -1.1783    5.6892 O   0  0  0  0  0  2           0  0  0
   -6.8272   -3.7271    4.4135 N   0  0  0  0  0  3           0  0  0
   -6.3470   -2.4731    4.2207 N   0  0  0  0  0  3           0  0  0
   -4.7786   -5.6477    6.6002 N   0  0  2  0  0  3           0  0  0
   -4.9422   -7.3504    8.4597 C   0  0  0  0  0  4           0  0  0
   -6.0443   -4.4436    5.2414 C   0  0  0  0  0  4           0  0  0
   -5.2193   -2.4204    4.9638 C   0  0  0  0  0  4           0  0  0
   -4.2630   -6.7222    7.3918 C   0  0  0  0  0  4           0  0  0
   -5.0131   -3.6410    5.6150 C   0  0  0  0  0  4           0  0  0
   -4.3377   -8.4067    9.1677 C   0  0  0  0  0  4           0  0  0
   -2.9681   -7.2012    7.0860 C   0  0  0  0  0  4           0  0  0
   -3.0619   -8.8524    8.8389 C   0  0  0  0  0  4           0  0  0
   -2.3763   -8.2482    7.7976 C   0  0  0  0  0  4           0  0  0
   -5.9587   -5.7374    5.8298 C   0  0  0  0  0  4           0  0  0
   -4.1604   -4.3793    6.5039 C   0  0  0  0  0  4           0  0  0
   -4.4009   -1.2175    5.0097 C   0  0  0  0  0  4           0  0  0
   -4.8306   -0.0000    4.2191 C   0  0  0  0  0  4           0  0  0
   -4.2380   -0.0000    2.8129 C   0  0  0  0  0  4           0  0  0
   -2.7117   -0.0000    2.8129 C   0  0  0  0  0  4           0  0  0
   -2.1190   -0.0000    1.4064 C   0  0  0  0  0  4           0  0  0
   -0.5927    0.0000    1.4064 C   0  0  0  0  0  4           0  0  0
    0.0000    0.0000    0.0000 C   0  0  0  0  0  4           0  0  0
    1.5260    0.0000    0.0000 C   0  0  0  0  0  4           0  0  0
    2.1188    0.0000   -1.4064 C   0  0  0  0  0  4           0  0  0
    3.6450    0.0000   -1.4064 C   0  0  0  0  0  4           0  0  0
    4.2378    0.0000   -2.8129 C   0  0  0  0  0  4           0  0  0
    5.7640    0.0000   -2.8129 C   0  0  0  0  0  4           0  0  0
    6.3567    0.0000   -4.2193 C   0  0  0  0  0  4           0  0  0
    7.8830    0.0000   -4.2193 C   0  0  0  0  0  4           0  0  0
    8.4757    0.0000   -5.6258 C   0  0  0  0  0  4           0  0  0
   10.0019    0.0000   -5.6258 C   0  0  0  0  0  4           0  0  0
   10.5947    0.0000   -7.0322 C   0  0  0  0  0  4           0  0  0
   12.1162    0.0000   -7.0310 C   0  0  0  0  0  4           0  0  0
  1  8  1  0     0  0
  2 17  2  0     0  0
  3 18  2  0     0  0
  4 19  2  0     0  0
  5  6  1  0     0  0
  5  9  1  0     0  0
  6 10  2  0     0  0
  7 11  1  0     0  0
  7 17  1  0     0  0
  7 18  1  0     0  0
  8 11  2  0     0  0
  8 13  1  0     0  0
  9 12  2  0     0  0
  9 17  1  0     0  0
 10 12  1  0     0  0
 10 19  1  0     0  0
 11 14  1  0     0  0
 12 18  1  0     0  0
 13 15  2  0     0  0
 14 16  2  0     0  0
 15 16  1  0     0  0
 19 20  1  0     0  0
 20 21  1  0     0  0
 21 22  1  0     0  0
 22 23  1  0     0  0
 23 24  1  0     0  0
 24 25  1  0     0  0
 25 26  1  0     0  0
 26 27  1  0     0  0
 27 28  1  0     0  0
 28 29  1  0     0  0
 29 30  1  0     0  0
 30 31  1  0     0  0
 31 32  1  0     0  0
 32 33  1  0     0  0
 33 34  1  0     0  0
 34 35  1  0     0  0
 35 36  1  0     0  0
M  END
> <standard_type>
pIC50

> <# Confs.>
25

> <canonical_smiles>
BrC1=C(N2C(C(C(C(CCCCCCCCCCCCCCCCC)=O)=NN3)=C3C2=O)=O)C=CC=C1

> <standard_relation>
=

> <predicted_activity_value>
6.638272163982407

> <actual_activity_value>
6.6020599913279625

> <Compound>
23

> <publication_ID>
nan

> <standard_units>
nM

> hash
2370216192129740831

$$$$
23_
XXILIB    08252103423D 0   0.00000     0.00000

 36 38  0     1  0            999 V2000
   -3.9666   -8.5446    5.0779 Br  0  0  0  0  0  1           0  0  0
   -6.7382   -6.6634    5.6736 O   0  0  0  0  0  2           0  0  0
   -3.1462   -3.9425    7.0223 O   0  0  0  0  0  2           0  0  0
   -3.3754   -1.1783    5.6892 O   0  0  0  0  0  2           0  0  0
   -6.8272   -3.7271    4.4135 N   0  0  0  0  0  3           0  0  0
   -6.3470   -2.4731    4.2207 N   0  0  0  0  0  3           0  0  0
   -4.7786   -5.6477    6.6002 N   0  0  2  0  0  3           0  0  0
   -3.8747   -7.9881    6.8988 C   0  0  0  0  0  4           0  0  0
   -6.0443   -4.4436    5.2414 C   0  0  0  0  0  4           0  0  0
   -5.2193   -2.4204    4.9638 C   0  0  0  0  0  4           0  0  0
   -4.2630   -6.7222    7.3918 C   0  0  0  0  0  4           0  0  0
   -5.0131   -3.6410    5.6150 C   0  0  0  0  0  4           0  0  0
   -3.3728   -8.9716    7.7725 C   0  0  0  0  0  4           0  0  0
   -4.1267   -6.5071    8.7828 C   0  0  0  0  0  4           0  0  0
   -3.2521   -8.7249    9.1359 C   0  0  0  0  0  4           0  0  0
   -3.6304   -7.4917    9.6414 C   0  0  0  0  0  4           0  0  0
   -5.9587   -5.7374    5.8298 C   0  0  0  0  0  4           0  0  0
   -4.1604   -4.3793    6.5039 C   0  0  0  0  0  4           0  0  0
   -4.4009   -1.2175    5.0097 C   0  0  0  0  0  4           0  0  0
   -4.8306   -0.0000    4.2191 C   0  0  0  0  0  4           0  0  0
   -4.2380   -0.0000    2.8129 C   0  0  0  0  0  4           0  0  0
   -2.7117   -0.0000    2.8129 C   0  0  0  0  0  4           0  0  0
   -2.1190   -0.0000    1.4064 C   0  0  0  0  0  4           0  0  0
   -0.5927    0.0000    1.4064 C   0  0  0  0  0  4           0  0  0
    0.0000    0.0000    0.0000 C   0  0  0  0  0  4           0  0  0
    1.5260    0.0000    0.0000 C   0  0  0  0  0  4           0  0  0
    2.1188    0.0000   -1.4064 C   0  0  0  0  0  4           0  0  0
    3.6450    0.0000   -1.4064 C   0  0  0  0  0  4           0  0  0
    4.2378    0.0000   -2.8129 C   0  0  0  0  0  4           0  0  0
    5.7640    0.0000   -2.8129 C   0  0  0  0  0  4           0  0  0
    6.3567    0.0000   -4.2193 C   0  0  0  0  0  4           0  0  0
    7.8830    0.0000   -4.2193 C   0  0  0  0  0  4           0  0  0
    8.4757    0.0000   -5.6258 C   0  0  0  0  0  4           0  0  0
   10.0019    0.0000   -5.6258 C   0  0  0  0  0  4           0  0  0
   10.5947    0.0000   -7.0322 C   0  0  0  0  0  4           0  0  0
   12.1162    0.0000   -7.0310 C   0  0  0  0  0  4           0  0  0
  1  8  1  0     0  0
  2 17  2  0     0  0
  3 18  2  0     0  0
  4 19  2  0     0  0
  5  6  1  0     0  0
  5  9  1  0     0  0
  6 10  2  0     0  0
  7 11  1  0     0  0
  7 17  1  0     0  0
  7 18  1  0     0  0
  8 11  2  0     0  0
  8 13  1  0     0  0
  9 12  2  0     0  0
  9 17  1  0     0  0
 10 12  1  0     0  0
 10 19  1  0     0  0
 11 14  1  0     0  0
 12 18  1  0     0  0
 13 15  2  0     0  0
 14 16  2  0     0  0
 15 16  1  0     0  0
 19 20  1  0     0  0
 20 21  1  0     0  0
 21 22  1  0     0  0
 22 23  1  0     0  0
 23 24  1  0     0  0
 24 25  1  0     0  0
 25 26  1  0     0  0
 26 27  1  0     0  0
 27 28  1  0     0  0
 28 29  1  0     0  0
 29 30  1  0     0  0
 30 31  1  0     0  0
 31 32  1  0     0  0
 32 33  1  0     0  0
 33 34  1  0     0  0
 34 35  1  0     0  0
 35 36  1  0     0  0
M  END
> <standard_type>
pIC50

> <# Confs.>
25

> <canonical_smiles>
BrC1=C(N2C(C(C(C(CCCCCCCCCCCCCCCCC)=O)=NN3)=C3C2=O)=O)C=CC=C1

> <standard_relation>
=

> <predicted_activity_value>
6.638272163982407

> <actual_activity_value>
6.6020599913279625

> <Compound>
23

> <publication_ID>
nan

> <standard_units>
nM

> hash
2370216192129740831

$$$$
23_
XXILIB    08252103423D 0   0.00000     0.00000

 36 38  0     1  0            999 V2000
    0.9358   -4.2011    9.0945 Br  0  0  0  0  0  1           0  0  0
   -1.3798   -1.8944   10.1063 O   0  0  0  0  0  2           0  0  0
   -3.4839   -4.3001    6.6551 O   0  0  0  0  0  2           0  0  0
   -4.6802   -2.3448    4.6018 O   0  0  0  0  0  2           0  0  0
   -2.6553   -0.0237    7.8499 N   0  0  0  0  0  3           0  0  0
   -3.3366    0.1977    6.6979 N   0  0  0  0  0  3           0  0  0
   -2.3209   -3.4890    8.5891 N   0  0  2  0  0  3           0  0  0
   -0.6612   -5.1504    9.5213 C   0  0  0  0  0  4           0  0  0
   -2.5357   -1.3370    8.1190 C   0  0  0  0  0  4           0  0  0
   -3.6481   -1.0360    6.2420 C   0  0  0  0  0  4           0  0  0
   -1.9756   -4.7176    9.2360 C   0  0  0  0  0  4           0  0  0
   -3.1525   -2.0116    7.1133 C   0  0  0  0  0  4           0  0  0
   -0.4392   -6.3801   10.1701 C   0  0  0  0  0  4           0  0  0
   -3.0310   -5.5742    9.6260 C   0  0  0  0  0  4           0  0  0
   -1.5020   -7.1975   10.5399 C   0  0  0  0  0  4           0  0  0
   -2.7990   -6.7943   10.2666 C   0  0  0  0  0  4           0  0  0
   -1.9843   -2.2146    9.0956 C   0  0  0  0  0  4           0  0  0
   -3.0379   -3.4195    7.3719 C   0  0  0  0  0  4           0  0  0
   -4.4009   -1.2175    5.0097 C   0  0  0  0  0  4           0  0  0
   -4.8306   -0.0000    4.2191 C   0  0  0  0  0  4           0  0  0
   -4.2380   -0.0000    2.8129 C   0  0  0  0  0  4           0  0  0
   -2.7117   -0.0000    2.8129 C   0  0  0  0  0  4           0  0  0
   -2.1190   -0.0000    1.4064 C   0  0  0  0  0  4           0  0  0
   -0.5927    0.0000    1.4064 C   0  0  0  0  0  4           0  0  0
    0.0000    0.0000    0.0000 C   0  0  0  0  0  4           0  0  0
    1.5260    0.0000    0.0000 C   0  0  0  0  0  4           0  0  0
    2.1188    0.0000   -1.4064 C   0  0  0  0  0  4           0  0  0
    3.6450    0.0000   -1.4064 C   0  0  0  0  0  4           0  0  0
    4.2378    0.0000   -2.8129 C   0  0  0  0  0  4           0  0  0
    5.7640    0.0000   -2.8129 C   0  0  0  0  0  4           0  0  0
    6.3567    0.0000   -4.2193 C   0  0  0  0  0  4           0  0  0
    7.8830    0.0000   -4.2193 C   0  0  0  0  0  4           0  0  0
    8.4757    0.0000   -5.6258 C   0  0  0  0  0  4           0  0  0
   10.0019    0.0000   -5.6258 C   0  0  0  0  0  4           0  0  0
   10.5947    0.0000   -7.0322 C   0  0  0  0  0  4           0  0  0
   12.1162    0.0000   -7.0310 C   0  0  0  0  0  4           0  0  0
  1  8  1  0     0  0
  2 17  2  0     0  0
  3 18  2  0     0  0
  4 19  2  0     0  0
  5  6  1  0     0  0
  5  9  1  0     0  0
  6 10  2  0     0  0
  7 11  1  0     0  0
  7 17  1  0     0  0
  7 18  1  0     0  0
  8 11  2  0     0  0
  8 13  1  0     0  0
  9 12  2  0     0  0
  9 17  1  0     0  0
 10 12  1  0     0  0
 10 19  1  0     0  0
 11 14  1  0     0  0
 12 18  1  0     0  0
 13 15  2  0     0  0
 14 16  2  0     0  0
 15 16  1  0     0  0
 19 20  1  0     0  0
 20 21  1  0     0  0
 21 22  1  0     0  0
 22 23  1  0     0  0
 23 24  1  0     0  0
 24 25  1  0     0  0
 25 26  1  0     0  0
 26 27  1  0     0  0
 27 28  1  0     0  0
 28 29  1  0     0  0
 29 30  1  0     0  0
 30 31  1  0     0  0
 31 32  1  0     0  0
 32 33  1  0     0  0
 33 34  1  0     0  0
 34 35  1  0     0  0
 35 36  1  0     0  0
M  END
> <standard_type>
pIC50

> <# Confs.>
25

> <canonical_smiles>
BrC1=C(N2C(C(C(C(CCCCCCCCCCCCCCCCC)=O)=NN3)=C3C2=O)=O)C=CC=C1

> <standard_relation>
=

> <predicted_activity_value>
6.638272163982407

> <actual_activity_value>
6.6020599913279625

> <Compound>
23

> <publication_ID>
nan

> <standard_units>
nM

> hash
2370216192129740831

$$$$
23_
XXILIB    08252103423D 0   0.00000     0.00000

 36 38  0     1  0            999 V2000
   -3.5071    4.0552   11.7340 Br  0  0  0  0  0  1           0  0  0
   -1.4026    1.8937   10.1199 O   0  0  0  0  0  2           0  0  0
   -3.5440    4.2981    6.6908 O   0  0  0  0  0  2           0  0  0
   -4.6802    2.3448    4.6018 O   0  0  0  0  0  2           0  0  0
   -2.6834    0.0227    7.8666 N   0  0  0  0  0  3           0  0  0
   -3.3585   -0.1984    6.7110 N   0  0  0  0  0  3           0  0  0
   -2.3623    3.4876    8.6137 N   0  0  2  0  0  3           0  0  0
   -2.4167    5.0928   10.5642 C   0  0  0  0  0  4           0  0  0
   -2.5680    1.3360    8.1382 C   0  0  0  0  0  4           0  0  0
   -3.6698    1.0353    6.2550 C   0  0  0  0  0  4           0  0  0
   -2.0189    4.7162    9.2618 C   0  0  0  0  0  4           0  0  0
   -3.1890    2.0104    7.1350 C   0  0  0  0  0  4           0  0  0
   -2.0128    6.3284   11.1050 C   0  0  0  0  0  4           0  0  0
   -1.2148    5.6339    8.5470 C   0  0  0  0  0  4           0  0  0
   -1.2210    7.2067   10.3730 C   0  0  0  0  0  4           0  0  0
   -0.8226    6.8592    9.0924 C   0  0  0  0  0  4           0  0  0
   -2.0166    2.2135    9.1148 C   0  0  0  0  0  4           0  0  0
   -3.0851    3.4180    7.4000 C   0  0  0  0  0  4           0  0  0
   -4.4009    1.2175    5.0097 C   0  0  0  0  0  4           0  0  0
   -4.8306    0.0000    4.2191 C   0  0  0  0  0  4           0  0  0
   -4.2380    0.0000    2.8129 C   0  0  0  0  0  4           0  0  0
   -2.7117    0.0000    2.8129 C   0  0  0  0  0  4           0  0  0
   -2.1190    0.0000    1.4064 C   0  0  0  0  0  4           0  0  0
   -0.5927    0.0000    1.4064 C   0  0  0  0  0  4           0  0  0
    0.0000    0.0000    0.0000 C   0  0  0  0  0  4           0  0  0
    1.5260    0.0000    0.0000 C   0  0  0  0  0  4           0  0  0
    2.1188    0.0000   -1.4064 C   0  0  0  0  0  4           0  0  0
    3.6450    0.0000   -1.4064 C   0  0  0  0  0  4           0  0  0
    4.2378    0.0000   -2.8129 C   0  0  0  0  0  4           0  0  0
    5.7640    0.0000   -2.8129 C   0  0  0  0  0  4           0  0  0
    6.3567    0.0000   -4.2193 C   0  0  0  0  0  4           0  0  0
    7.8830    0.0000   -4.2193 C   0  0  0  0  0  4           0  0  0
    8.4757    0.0000   -5.6258 C   0  0  0  0  0  4           0  0  0
   10.0019    0.0000   -5.6258 C   0  0  0  0  0  4           0  0  0
   10.5947    0.0000   -7.0322 C   0  0  0  0  0  4           0  0  0
   12.1162    0.0000   -7.0310 C   0  0  0  0  0  4           0  0  0
  1  8  1  0     0  0
  2 17  2  0     0  0
  3 18  2  0     0  0
  4 19  2  0     0  0
  5  6  1  0     0  0
  5  9  1  0     0  0
  6 10  2  0     0  0
  7 11  1  0     0  0
  7 17  1  0     0  0
  7 18  1  0     0  0
  8 11  2  0     0  0
  8 13  1  0     0  0
  9 12  2  0     0  0
  9 17  1  0     0  0
 10 12  1  0     0  0
 10 19  1  0     0  0
 11 14  1  0     0  0
 12 18  1  0     0  0
 13 15  2  0     0  0
 14 16  2  0     0  0
 15 16  1  0     0  0
 19 20  1  0     0  0
 20 21  1  0     0  0
 21 22  1  0     0  0
 22 23  1  0     0  0
 23 24  1  0     0  0
 24 25  1  0     0  0
 25 26  1  0     0  0
 26 27  1  0     0  0
 27 28  1  0     0  0
 28 29  1  0     0  0
 29 30  1  0     0  0
 30 31  1  0     0  0
 31 32  1  0     0  0
 32 33  1  0     0  0
 33 34  1  0     0  0
 34 35  1  0     0  0
 35 36  1  0     0  0
M  END
> <standard_type>
pIC50

> <# Confs.>
25

> <canonical_smiles>
BrC1=C(N2C(C(C(C(CCCCCCCCCCCCCCCCC)=O)=NN3)=C3C2=O)=O)C=CC=C1

> <standard_relation>
=

> <predicted_activity_value>
6.638272163982407

> <actual_activity_value>
6.6020599913279625

> <Compound>
23

> <publication_ID>
nan

> <standard_units>
nM

> hash
2370216192129740831

$$$$
23_
XXILIB    08252103423D 0   0.00000     0.00000

 36 38  0     1  0            999 V2000
   -3.4577   -4.0575   11.7122 Br  0  0  0  0  0  1           0  0  0
   -1.3798   -1.8944   10.1063 O   0  0  0  0  0  2           0  0  0
   -3.4839   -4.3001    6.6551 O   0  0  0  0  0  2           0  0  0
   -4.6802   -2.3448    4.6018 O   0  0  0  0  0  2           0  0  0
   -2.6553   -0.0237    7.8499 N   0  0  0  0  0  3           0  0  0
   -3.3366    0.1977    6.6979 N   0  0  0  0  0  3           0  0  0
   -2.3209   -3.4890    8.5891 N   0  0  2  0  0  3           0  0  0
   -2.3795   -5.0995   10.5351 C   0  0  0  0  0  4           0  0  0
   -2.5357   -1.3370    8.1190 C   0  0  0  0  0  4           0  0  0
   -3.6481   -1.0360    6.2420 C   0  0  0  0  0  4           0  0  0
   -1.9756   -4.7176    9.2360 C   0  0  0  0  0  4           0  0  0
   -3.1525   -2.0116    7.1133 C   0  0  0  0  0  4           0  0  0
   -1.9836   -6.3402   11.0702 C   0  0  0  0  0  4           0  0  0
   -1.1646   -5.6305    8.5230 C   0  0  0  0  0  4           0  0  0
   -1.1854   -7.2140   10.3396 C   0  0  0  0  0  4           0  0  0
   -0.7749   -6.8581    9.0652 C   0  0  0  0  0  4           0  0  0
   -1.9843   -2.2146    9.0956 C   0  0  0  0  0  4           0  0  0
   -3.0379   -3.4195    7.3719 C   0  0  0  0  0  4           0  0  0
   -4.4009   -1.2175    5.0097 C   0  0  0  0  0  4           0  0  0
   -4.8306   -0.0000    4.2191 C   0  0  0  0  0  4           0  0  0
   -4.2380   -0.0000    2.8129 C   0  0  0  0  0  4           0  0  0
   -2.7117   -0.0000    2.8129 C   0  0  0  0  0  4           0  0  0
   -2.1190   -0.0000    1.4064 C   0  0  0  0  0  4           0  0  0
   -0.5927    0.0000    1.4064 C   0  0  0  0  0  4           0  0  0
    0.0000    0.0000    0.0000 C   0  0  0  0  0  4           0  0  0
    1.5260    0.0000    0.0000 C   0  0  0  0  0  4           0  0  0
    2.1188    0.0000   -1.4064 C   0  0  0  0  0  4           0  0  0
    3.6450    0.0000   -1.4064 C   0  0  0  0  0  4           0  0  0
    4.2378    0.0000   -2.8129 C   0  0  0  0  0  4           0  0  0
    5.7640    0.0000   -2.8129 C   0  0  0  0  0  4           0  0  0
    6.3567    0.0000   -4.2193 C   0  0  0  0  0  4           0  0  0
    7.8830    0.0000   -4.2193 C   0  0  0  0  0  4           0  0  0
    8.4757    0.0000   -5.6258 C   0  0  0  0  0  4           0  0  0
   10.0019    0.0000   -5.6258 C   0  0  0  0  0  4           0  0  0
   10.5947    0.0000   -7.0322 C   0  0  0  0  0  4           0  0  0
   12.1162    0.0000   -7.0310 C   0  0  0  0  0  4           0  0  0
  1  8  1  0     0  0
  2 17  2  0     0  0
  3 18  2  0     0  0
  4 19  2  0     0  0
  5  6  1  0     0  0
  5  9  1  0     0  0
  6 10  2  0     0  0
  7 11  1  0     0  0
  7 17  1  0     0  0
  7 18  1  0     0  0
  8 11  2  0     0  0
  8 13  1  0     0  0
  9 12  2  0     0  0
  9 17  1  0     0  0
 10 12  1  0     0  0
 10 19  1  0     0  0
 11 14  1  0     0  0
 12 18  1  0     0  0
 13 15  2  0     0  0
 14 16  2  0     0  0
 15 16  1  0     0  0
 19 20  1  0     0  0
 20 21  1  0     0  0
 21 22  1  0     0  0
 22 23  1  0     0  0
 23 24  1  0     0  0
 24 25  1  0     0  0
 25 26  1  0     0  0
 26 27  1  0     0  0
 27 28  1  0     0  0
 28 29  1  0     0  0
 29 30  1  0     0  0
 30 31  1  0     0  0
 31 32  1  0     0  0
 32 33  1  0     0  0
 33 34  1  0     0  0
 34 35  1  0     0  0
 35 36  1  0     0  0
M  END
> <standard_type>
pIC50

> <# Confs.>
25

> <canonical_smiles>
BrC1=C(N2C(C(C(C(CCCCCCCCCCCCCCCCC)=O)=NN3)=C3C2=O)=O)C=CC=C1

> <standard_relation>
=

> <predicted_activity_value>
6.638272163982407

> <actual_activity_value>
6.6020599913279625

> <Compound>
23

> <publication_ID>
nan

> <standard_units>
nM

> hash
2370216192129740831

$$$$
23_
XXILIB    08252103423D 0   0.00000     0.00000

 36 38  0     1  0            999 V2000
    0.8930    4.2004    9.1274 Br  0  0  0  0  0  1           0  0  0
   -1.4026    1.8937   10.1199 O   0  0  0  0  0  2           0  0  0
   -3.5440    4.2981    6.6908 O   0  0  0  0  0  2           0  0  0
   -4.6802    2.3448    4.6018 O   0  0  0  0  0  2           0  0  0
   -2.6834    0.0227    7.8666 N   0  0  0  0  0  3           0  0  0
   -3.3585   -0.1984    6.7110 N   0  0  0  0  0  3           0  0  0
   -2.3623    3.4876    8.6137 N   0  0  2  0  0  3           0  0  0
   -0.7049    5.1545    9.5402 C   0  0  0  0  0  4           0  0  0
   -2.5680    1.3360    8.1382 C   0  0  0  0  0  4           0  0  0
   -3.6698    1.0353    6.2550 C   0  0  0  0  0  4           0  0  0
   -2.0189    4.7162    9.2618 C   0  0  0  0  0  4           0  0  0
   -3.1890    2.0104    7.1350 C   0  0  0  0  0  4           0  0  0
   -0.4843    6.3895   10.1794 C   0  0  0  0  0  4           0  0  0
   -3.0759    5.5678    9.6584 C   0  0  0  0  0  4           0  0  0
   -1.5486    7.2021   10.5554 C   0  0  0  0  0  4           0  0  0
   -2.8456    6.7901   10.2954 C   0  0  0  0  0  4           0  0  0
   -2.0166    2.2135    9.1148 C   0  0  0  0  0  4           0  0  0
   -3.0851    3.4180    7.4000 C   0  0  0  0  0  4           0  0  0
   -4.4009    1.2175    5.0097 C   0  0  0  0  0  4           0  0  0
   -4.8306    0.0000    4.2191 C   0  0  0  0  0  4           0  0  0
   -4.2380    0.0000    2.8129 C   0  0  0  0  0  4           0  0  0
   -2.7117    0.0000    2.8129 C   0  0  0  0  0  4           0  0  0
   -2.1190    0.0000    1.4064 C   0  0  0  0  0  4           0  0  0
   -0.5927    0.0000    1.4064 C   0  0  0  0  0  4           0  0  0
    0.0000    0.0000    0.0000 C   0  0  0  0  0  4           0  0  0
    1.5260    0.0000    0.0000 C   0  0  0  0  0  4           0  0  0
    2.1188    0.0000   -1.4064 C   0  0  0  0  0  4           0  0  0
    3.6450    0.0000   -1.4064 C   0  0  0  0  0  4           0  0  0
    4.2378    0.0000   -2.8129 C   0  0  0  0  0  4           0  0  0
    5.7640    0.0000   -2.8129 C   0  0  0  0  0  4           0  0  0
    6.3567    0.0000   -4.2193 C   0  0  0  0  0  4           0  0  0
    7.8830    0.0000   -4.2193 C   0  0  0  0  0  4           0  0  0
    8.4757    0.0000   -5.6258 C   0  0  0  0  0  4           0  0  0
   10.0019    0.0000   -5.6258 C   0  0  0  0  0  4           0  0  0
   10.5947    0.0000   -7.0322 C   0  0  0  0  0  4           0  0  0
   12.1162    0.0000   -7.0310 C   0  0  0  0  0  4           0  0  0
  1  8  1  0     0  0
  2 17  2  0     0  0
  3 18  2  0     0  0
  4 19  2  0     0  0
  5  6  1  0     0  0
  5  9  1  0     0  0
  6 10  2  0     0  0
  7 11  1  0     0  0
  7 17  1  0     0  0
  7 18  1  0     0  0
  8 11  2  0     0  0
  8 13  1  0     0  0
  9 12  2  0     0  0
  9 17  1  0     0  0
 10 12  1  0     0  0
 10 19  1  0     0  0
 11 14  1  0     0  0
 12 18  1  0     0  0
 13 15  2  0     0  0
 14 16  2  0     0  0
 15 16  1  0     0  0
 19 20  1  0     0  0
 20 21  1  0     0  0
 21 22  1  0     0  0
 22 23  1  0     0  0
 23 24  1  0     0  0
 24 25  1  0     0  0
 25 26  1  0     0  0
 26 27  1  0     0  0
 27 28  1  0     0  0
 28 29  1  0     0  0
 29 30  1  0     0  0
 30 31  1  0     0  0
 31 32  1  0     0  0
 32 33  1  0     0  0
 33 34  1  0     0  0
 34 35  1  0     0  0
 35 36  1  0     0  0
M  END
> <standard_type>
pIC50

> <# Confs.>
25

> <canonical_smiles>
BrC1=C(N2C(C(C(C(CCCCCCCCCCCCCCCCC)=O)=NN3)=C3C2=O)=O)C=CC=C1

> <standard_relation>
=

> <predicted_activity_value>
6.638272163982407

> <actual_activity_value>
6.6020599913279625

> <Compound>
23

> <publication_ID>
nan

> <standard_units>
nM

> hash
2370216192129740831

$$$$
23_
XXILIB    08252103423D 0   0.00000     0.00000

 36 38  0     1  0            999 V2000
   -2.6079    8.7526   11.5143 Br  0  0  0  0  0  1           0  0  0
   -1.6905    5.5256   12.1863 O   0  0  0  0  0  2           0  0  0
    0.6485    6.6666    8.2681 O   0  0  0  0  0  2           0  0  0
    0.2285    4.4903    6.1332 O   0  0  0  0  0  2           0  0  0
   -2.0396    3.3912    9.8326 N   0  0  0  0  0  3           0  0  0
   -1.8104    2.9107    8.5848 N   0  0  0  0  0  3           0  0  0
   -0.3689    6.4761   10.4313 N   0  0  2  0  0  3           0  0  0
   -0.7032    8.7051   11.5731 C   0  0  0  0  0  4           0  0  0
   -1.4027    4.5573   10.0473 C   0  0  0  0  0  4           0  0  0
   -0.9961    3.8239    8.0106 C   0  0  0  0  0  4           0  0  0
    0.1091    7.6669   11.0642 C   0  0  0  0  0  4           0  0  0
   -0.7318    4.8654    8.9062 C   0  0  0  0  0  4           0  0  0
   -0.1218    9.8325   12.1841 C   0  0  0  0  0  4           0  0  0
    1.5081    7.8250   11.1962 C   0  0  0  0  0  4           0  0  0
    1.2591    9.9543   12.2970 C   0  0  0  0  0  4           0  0  0
    2.0746    8.9499   11.8016 C   0  0  0  0  0  4           0  0  0
   -1.2156    5.5385   11.0621 C   0  0  0  0  0  4           0  0  0
   -0.0434    6.1099    9.1045 C   0  0  0  0  0  4           0  0  0
   -0.5128    3.6536    6.6483 C   0  0  0  0  0  4           0  0  0
   -0.9425    2.4360    5.8578 C   0  0  0  0  0  4           0  0  0
   -0.3498    2.4360    4.4515 C   0  0  0  0  0  4           0  0  0
   -0.7676    1.2180    3.6322 C   0  0  0  0  0  4           0  0  0
   -0.1749    1.2180    2.2258 C   0  0  0  0  0  4           0  0  0
   -0.5927    0.0000    1.4064 C   0  0  0  0  0  4           0  0  0
    0.0000    0.0000    0.0000 C   0  0  0  0  0  4           0  0  0
    1.5260    0.0000    0.0000 C   0  0  0  0  0  4           0  0  0
    2.1188    0.0000   -1.4064 C   0  0  0  0  0  4           0  0  0
    3.6450    0.0000   -1.4064 C   0  0  0  0  0  4           0  0  0
    4.2378    0.0000   -2.8129 C   0  0  0  0  0  4           0  0  0
    5.7640    0.0000   -2.8129 C   0  0  0  0  0  4           0  0  0
    6.3567    0.0000   -4.2193 C   0  0  0  0  0  4           0  0  0
    7.8830    0.0000   -4.2193 C   0  0  0  0  0  4           0  0  0
    8.4757    0.0000   -5.6258 C   0  0  0  0  0  4           0  0  0
   10.0019    0.0000   -5.6258 C   0  0  0  0  0  4           0  0  0
   10.5947    0.0000   -7.0322 C   0  0  0  0  0  4           0  0  0
   12.1162    0.0000   -7.0310 C   0  0  0  0  0  4           0  0  0
  1  8  1  0     0  0
  2 17  2  0     0  0
  3 18  2  0     0  0
  4 19  2  0     0  0
  5  6  1  0     0  0
  5  9  1  0     0  0
  6 10  2  0     0  0
  7 11  1  0     0  0
  7 17  1  0     0  0
  7 18  1  0     0  0
  8 11  2  0     0  0
  8 13  1  0     0  0
  9 12  2  0     0  0
  9 17  1  0     0  0
 10 12  1  0     0  0
 10 19  1  0     0  0
 11 14  1  0     0  0
 12 18  1  0     0  0
 13 15  2  0     0  0
 14 16  2  0     0  0
 15 16  1  0     0  0
 19 20  1  0     0  0
 20 21  1  0     0  0
 21 22  1  0     0  0
 22 23  1  0     0  0
 23 24  1  0     0  0
 24 25  1  0     0  0
 25 26  1  0     0  0
 26 27  1  0     0  0
 27 28  1  0     0  0
 28 29  1  0     0  0
 29 30  1  0     0  0
 30 31  1  0     0  0
 31 32  1  0     0  0
 32 33  1  0     0  0
 33 34  1  0     0  0
 34 35  1  0     0  0
 35 36  1  0     0  0
M  END
> <standard_type>
pIC50

> <# Confs.>
25

> <canonical_smiles>
BrC1=C(N2C(C(C(C(CCCCCCCCCCCCCCCCC)=O)=NN3)=C3C2=O)=O)C=CC=C1

> <standard_relation>
=

> <predicted_activity_value>
6.638272163982407

> <actual_activity_value>
6.6020599913279625

> <Compound>
23

> <publication_ID>
nan

> <standard_units>
nM

> hash
2370216192129740831

$$$$
23_
XXILIB    08252103423D 0   0.00000     0.00000

 36 38  0     1  0            999 V2000
  -12.4521   -2.5849    7.3656 Br  0  0  0  0  0  1           0  0  0
  -10.4888   -0.0133    8.4784 O   0  0  0  0  0  2           0  0  0
   -9.9363   -0.0350    3.8072 O   0  0  0  0  0  2           0  0  0
   -6.9384   -0.0000    3.1127 O   0  0  0  0  0  2           0  0  0
   -7.4262   -0.0163    7.5624 N   0  0  0  0  0  3           0  0  0
   -6.4357   -0.0128    6.6355 N   0  0  0  0  0  3           0  0  0
  -10.6669   -0.0241    6.0912 N   0  0  2  0  0  3           0  0  0
  -12.9672   -1.0214    6.4045 C   0  0  0  0  0  4           0  0  0
   -8.6465   -0.0188    6.9944 C   0  0  0  0  0  4           0  0  0
   -7.0792   -0.0127    5.4470 C   0  0  0  0  0  4           0  0  0
  -12.0879   -0.0252    5.9239 C   0  0  0  0  0  4           0  0  0
   -8.4634   -0.0213    5.6478 C   0  0  0  0  0  4           0  0  0
  -14.3541   -0.9156    6.1860 C   0  0  0  0  0  4           0  0  0
  -12.6679    1.0567    5.2219 C   0  0  0  0  0  4           0  0  0
  -14.8900    0.1635    5.4911 C   0  0  0  0  0  4           0  0  0
  -14.0457    1.1499    5.0079 C   0  0  0  0  0  4           0  0  0
  -10.0256   -0.0188    7.3492 C   0  0  0  0  0  4           0  0  0
   -9.7516   -0.0275    5.0130 C   0  0  0  0  0  4           0  0  0
   -6.3442   -0.0000    4.1907 C   0  0  0  0  0  4           0  0  0
   -4.8306    0.0000    4.2191 C   0  0  0  0  0  4           0  0  0
   -4.2380   -0.0000    2.8129 C   0  0  0  0  0  4           0  0  0
   -2.7117    0.0000    2.8129 C   0  0  0  0  0  4           0  0  0
   -2.1190   -0.0000    1.4064 C   0  0  0  0  0  4           0  0  0
   -0.5927    0.0000    1.4064 C   0  0  0  0  0  4           0  0  0
    0.0000   -0.0000    0.0000 C   0  0  0  0  0  4           0  0  0
    1.5260   -0.0000    0.0000 C   0  0  0  0  0  4           0  0  0
    2.1188    0.0000   -1.4064 C   0  0  0  0  0  4           0  0  0
    3.6450    0.0000   -1.4064 C   0  0  0  0  0  4           0  0  0
    4.2378   -1.2180   -0.7032 C   0  0  0  0  0  4           0  0  0
    5.7640   -1.2180   -0.7032 C   0  0  0  0  0  4           0  0  0
    6.3567   -2.4360    0.0000 C   0  0  0  0  0  4           0  0  0
    7.8830   -2.4360    0.0000 C   0  0  0  0  0  4           0  0  0
    8.4757   -3.6540    0.7032 C   0  0  0  0  0  4           0  0  0
   10.0019   -3.6540    0.7032 C   0  0  0  0  0  4           0  0  0
   10.5947   -4.8721    1.4064 C   0  0  0  0  0  4           0  0  0
   12.1162   -4.8710    1.4058 C   0  0  0  0  0  4           0  0  0
  1  8  1  0     0  0
  2 17  2  0     0  0
  3 18  2  0     0  0
  4 19  2  0     0  0
  5  6  1  0     0  0
  5  9  1  0     0  0
  6 10  2  0     0  0
  7 11  1  0     0  0
  7 17  1  0     0  0
  7 18  1  0     0  0
  8 11  2  0     0  0
  8 13  1  0     0  0
  9 12  2  0     0  0
  9 17  1  0     0  0
 10 12  1  0     0  0
 10 19  1  0     0  0
 11 14  1  0     0  0
 12 18  1  0     0  0
 13 15  2  0     0  0
 14 16  2  0     0  0
 15 16  1  0     0  0
 19 20  1  0     0  0
 20 21  1  0     0  0
 21 22  1  0     0  0
 22 23  1  0     0  0
 23 24  1  0     0  0
 24 25  1  0     0  0
 25 26  1  0     0  0
 26 27  1  0     0  0
 27 28  1  0     0  0
 28 29  1  0     0  0
 29 30  1  0     0  0
 30 31  1  0     0  0
 31 32  1  0     0  0
 32 33  1  0     0  0
 33 34  1  0     0  0
 34 35  1  0     0  0
 35 36  1  0     0  0
M  END
> <standard_type>
pIC50

> <# Confs.>
25

> <canonical_smiles>
BrC1=C(N2C(C(C(C(CCCCCCCCCCCCCCCCC)=O)=NN3)=C3C2=O)=O)C=CC=C1

> <standard_relation>
=

> <predicted_activity_value>
6.638272163982407

> <actual_activity_value>
6.6020599913279625

> <Compound>
23

> <publication_ID>
nan

> <standard_units>
nM

> hash
2370216192129740831

$$$$
23_
XXILIB    08252103423D 0   0.00000     0.00000

 36 38  0     1  0            999 V2000
  -12.4521   -2.5849    7.3656 Br  0  0  0  0  0  1           0  0  0
  -10.4888   -0.0133    8.4784 O   0  0  0  0  0  2           0  0  0
   -9.9363   -0.0350    3.8072 O   0  0  0  0  0  2           0  0  0
   -6.9384   -0.0000    3.1127 O   0  0  0  0  0  2           0  0  0
   -7.4262   -0.0163    7.5624 N   0  0  0  0  0  3           0  0  0
   -6.4357   -0.0128    6.6355 N   0  0  0  0  0  3           0  0  0
  -10.6669   -0.0241    6.0912 N   0  0  2  0  0  3           0  0  0
  -12.9672   -1.0214    6.4045 C   0  0  0  0  0  4           0  0  0
   -8.6465   -0.0188    6.9944 C   0  0  0  0  0  4           0  0  0
   -7.0792   -0.0127    5.4470 C   0  0  0  0  0  4           0  0  0
  -12.0879   -0.0252    5.9239 C   0  0  0  0  0  4           0  0  0
   -8.4634   -0.0213    5.6478 C   0  0  0  0  0  4           0  0  0
  -14.3541   -0.9156    6.1860 C   0  0  0  0  0  4           0  0  0
  -12.6679    1.0567    5.2219 C   0  0  0  0  0  4           0  0  0
  -14.8900    0.1635    5.4911 C   0  0  0  0  0  4           0  0  0
  -14.0457    1.1499    5.0079 C   0  0  0  0  0  4           0  0  0
  -10.0256   -0.0188    7.3492 C   0  0  0  0  0  4           0  0  0
   -9.7516   -0.0275    5.0130 C   0  0  0  0  0  4           0  0  0
   -6.3442   -0.0000    4.1907 C   0  0  0  0  0  4           0  0  0
   -4.8306    0.0000    4.2191 C   0  0  0  0  0  4           0  0  0
   -4.2380   -0.0000    2.8129 C   0  0  0  0  0  4           0  0  0
   -2.7117    0.0000    2.8129 C   0  0  0  0  0  4           0  0  0
   -2.1190   -0.0000    1.4064 C   0  0  0  0  0  4           0  0  0
   -0.5927    0.0000    1.4064 C   0  0  0  0  0  4           0  0  0
    0.0000   -0.0000    0.0000 C   0  0  0  0  0  4           0  0  0
    1.5260   -0.0000   -0.0000 C   0  0  0  0  0  4           0  0  0
    2.1188    0.0000   -1.4064 C   0  0  0  0  0  4           0  0  0
    3.6450   -0.0000   -1.4064 C   0  0  0  0  0  4           0  0  0
    4.2378    0.0000   -2.8129 C   0  0  0  0  0  4           0  0  0
    3.8199    1.2180   -3.6322 C   0  0  0  0  0  4           0  0  0
    4.4127    1.2180   -5.0386 C   0  0  0  0  0  4           0  0  0
    3.9948    2.4360   -5.8580 C   0  0  0  0  0  4           0  0  0
    4.5876    2.4360   -7.2644 C   0  0  0  0  0  4           0  0  0
    4.1697    3.6540   -8.0837 C   0  0  0  0  0  4           0  0  0
    4.7625    3.6540   -9.4902 C   0  0  0  0  0  4           0  0  0
    4.3453    4.8687  -10.3060 C   0  0  0  0  0  4           0  0  0
  1  8  1  0     0  0
  2 17  2  0     0  0
  3 18  2  0     0  0
  4 19  2  0     0  0
  5  6  1  0     0  0
  5  9  1  0     0  0
  6 10  2  0     0  0
  7 11  1  0     0  0
  7 17  1  0     0  0
  7 18  1  0     0  0
  8 11  2  0     0  0
  8 13  1  0     0  0
  9 12  2  0     0  0
  9 17  1  0     0  0
 10 12  1  0     0  0
 10 19  1  0     0  0
 11 14  1  0     0  0
 12 18  1  0     0  0
 13 15  2  0     0  0
 14 16  2  0     0  0
 15 16  1  0     0  0
 19 20  1  0     0  0
 20 21  1  0     0  0
 21 22  1  0     0  0
 22 23  1  0     0  0
 23 24  1  0     0  0
 24 25  1  0     0  0
 25 26  1  0     0  0
 26 27  1  0     0  0
 27 28  1  0     0  0
 28 29  1  0     0  0
 29 30  1  0     0  0
 30 31  1  0     0  0
 31 32  1  0     0  0
 32 33  1  0     0  0
 33 34  1  0     0  0
 34 35  1  0     0  0
 35 36  1  0     0  0
M  END
> <standard_type>
pIC50

> <# Confs.>
25

> <canonical_smiles>
BrC1=C(N2C(C(C(C(CCCCCCCCCCCCCCCCC)=O)=NN3)=C3C2=O)=O)C=CC=C1

> <standard_relation>
=

> <predicted_activity_value>
6.638272163982407

> <actual_activity_value>
6.6020599913279625

> <Compound>
23

> <publication_ID>
nan

> <standard_units>
nM

> hash
2370216192129740831

$$$$
23_
XXILIB    08252103423D 0   0.00000     0.00000

 36 38  0     1  0            999 V2000
  -12.4521   -2.5849    7.3656 Br  0  0  0  0  0  1           0  0  0
  -10.4888   -0.0133    8.4784 O   0  0  0  0  0  2           0  0  0
   -9.9363   -0.0350    3.8072 O   0  0  0  0  0  2           0  0  0
   -6.9384   -0.0000    3.1127 O   0  0  0  0  0  2           0  0  0
   -7.4262   -0.0163    7.5624 N   0  0  0  0  0  3           0  0  0
   -6.4357   -0.0128    6.6355 N   0  0  0  0  0  3           0  0  0
  -10.6669   -0.0241    6.0912 N   0  0  2  0  0  3           0  0  0
  -12.9672   -1.0214    6.4045 C   0  0  0  0  0  4           0  0  0
   -8.6465   -0.0188    6.9944 C   0  0  0  0  0  4           0  0  0
   -7.0792   -0.0127    5.4470 C   0  0  0  0  0  4           0  0  0
  -12.0879   -0.0252    5.9239 C   0  0  0  0  0  4           0  0  0
   -8.4634   -0.0213    5.6478 C   0  0  0  0  0  4           0  0  0
  -14.3541   -0.9156    6.1860 C   0  0  0  0  0  4           0  0  0
  -12.6679    1.0567    5.2219 C   0  0  0  0  0  4           0  0  0
  -14.8900    0.1635    5.4911 C   0  0  0  0  0  4           0  0  0
  -14.0457    1.1499    5.0079 C   0  0  0  0  0  4           0  0  0
  -10.0256   -0.0188    7.3492 C   0  0  0  0  0  4           0  0  0
   -9.7516   -0.0275    5.0130 C   0  0  0  0  0  4           0  0  0
   -6.3442   -0.0000    4.1907 C   0  0  0  0  0  4           0  0  0
   -4.8306    0.0000    4.2191 C   0  0  0  0  0  4           0  0  0
   -4.2380   -0.0000    2.8129 C   0  0  0  0  0  4           0  0  0
   -2.7117    0.0000    2.8129 C   0  0  0  0  0  4           0  0  0
   -2.1190   -0.0000    1.4064 C   0  0  0  0  0  4           0  0  0
   -0.5927    0.0000    1.4064 C   0  0  0  0  0  4           0  0  0
    0.0000   -0.0000    0.0000 C   0  0  0  0  0  4           0  0  0
    1.5260   -0.0000    0.0000 C   0  0  0  0  0  4           0  0  0
    2.1188    0.0000   -1.4064 C   0  0  0  0  0  4           0  0  0
    1.7009    1.2180   -2.2258 C   0  0  0  0  0  4           0  0  0
    2.2937    1.2180   -3.6322 C   0  0  0  0  0  4           0  0  0
    1.8759    2.4360   -4.4515 C   0  0  0  0  0  4           0  0  0
    2.4686    2.4360   -5.8580 C   0  0  0  0  0  4           0  0  0
    2.0508    3.6540   -6.6773 C   0  0  0  0  0  4           0  0  0
    2.6435    3.6540   -8.0837 C   0  0  0  0  0  4           0  0  0
    2.2257    4.8721   -8.9030 C   0  0  0  0  0  4           0  0  0
    2.8184    4.8721  -10.3095 C   0  0  0  0  0  4           0  0  0
    2.4012    6.0867  -11.1253 C   0  0  0  0  0  4           0  0  0
  1  8  1  0     0  0
  2 17  2  0     0  0
  3 18  2  0     0  0
  4 19  2  0     0  0
  5  6  1  0     0  0
  5  9  1  0     0  0
  6 10  2  0     0  0
  7 11  1  0     0  0
  7 17  1  0     0  0
  7 18  1  0     0  0
  8 11  2  0     0  0
  8 13  1  0     0  0
  9 12  2  0     0  0
  9 17  1  0     0  0
 10 12  1  0     0  0
 10 19  1  0     0  0
 11 14  1  0     0  0
 12 18  1  0     0  0
 13 15  2  0     0  0
 14 16  2  0     0  0
 15 16  1  0     0  0
 19 20  1  0     0  0
 20 21  1  0     0  0
 21 22  1  0     0  0
 22 23  1  0     0  0
 23 24  1  0     0  0
 24 25  1  0     0  0
 25 26  1  0     0  0
 26 27  1  0     0  0
 27 28  1  0     0  0
 28 29  1  0     0  0
 29 30  1  0     0  0
 30 31  1  0     0  0
 31 32  1  0     0  0
 32 33  1  0     0  0
 33 34  1  0     0  0
 34 35  1  0     0  0
 35 36  1  0     0  0
M  END
> <standard_type>
pIC50

> <# Confs.>
25

> <canonical_smiles>
BrC1=C(N2C(C(C(C(CCCCCCCCCCCCCCCCC)=O)=NN3)=C3C2=O)=O)C=CC=C1

> <standard_relation>
=

> <predicted_activity_value>
6.638272163982407

> <actual_activity_value>
6.6020599913279625

> <Compound>
23

> <publication_ID>
nan

> <standard_units>
nM

> hash
2370216192129740831

$$$$
23_
XXILIB    08252103423D 0   0.00000     0.00000

 36 38  0     1  0            999 V2000
  -12.4521   -2.5849    7.3656 Br  0  0  0  0  0  1           0  0  0
  -10.4888   -0.0133    8.4784 O   0  0  0  0  0  2           0  0  0
   -9.9363   -0.0350    3.8072 O   0  0  0  0  0  2           0  0  0
   -6.9384   -0.0000    3.1127 O   0  0  0  0  0  2           0  0  0
   -7.4262   -0.0163    7.5624 N   0  0  0  0  0  3           0  0  0
   -6.4357   -0.0128    6.6355 N   0  0  0  0  0  3           0  0  0
  -10.6669   -0.0241    6.0912 N   0  0  2  0  0  3           0  0  0
  -12.9672   -1.0214    6.4045 C   0  0  0  0  0  4           0  0  0
   -8.6465   -0.0188    6.9944 C   0  0  0  0  0  4           0  0  0
   -7.0792   -0.0127    5.4470 C   0  0  0  0  0  4           0  0  0
  -12.0879   -0.0252    5.9239 C   0  0  0  0  0  4           0  0  0
   -8.4634   -0.0213    5.6478 C   0  0  0  0  0  4           0  0  0
  -14.3541   -0.9156    6.1860 C   0  0  0  0  0  4           0  0  0
  -12.6679    1.0567    5.2219 C   0  0  0  0  0  4           0  0  0
  -14.8900    0.1635    5.4911 C   0  0  0  0  0  4           0  0  0
  -14.0457    1.1499    5.0079 C   0  0  0  0  0  4           0  0  0
  -10.0256   -0.0188    7.3492 C   0  0  0  0  0  4           0  0  0
   -9.7516   -0.0275    5.0130 C   0  0  0  0  0  4           0  0  0
   -6.3442   -0.0000    4.1907 C   0  0  0  0  0  4           0  0  0
   -4.8306    0.0000    4.2191 C   0  0  0  0  0  4           0  0  0
   -4.2380   -0.0000    2.8129 C   0  0  0  0  0  4           0  0  0
   -2.7117    0.0000    2.8129 C   0  0  0  0  0  4           0  0  0
   -2.1190   -0.0000    1.4064 C   0  0  0  0  0  4           0  0  0
   -0.5927    0.0000    1.4064 C   0  0  0  0  0  4           0  0  0
    0.0000   -0.0000    0.0000 C   0  0  0  0  0  4           0  0  0
    1.5260    0.0000   -0.0000 C   0  0  0  0  0  4           0  0  0
    2.1188   -1.2180    0.7032 C   0  0  0  0  0  4           0  0  0
    3.6450   -1.2180    0.7032 C   0  0  0  0  0  4           0  0  0
    4.2378   -2.4360    1.4064 C   0  0  0  0  0  4           0  0  0
    5.7640   -2.4360    1.4064 C   0  0  0  0  0  4           0  0  0
    6.3567   -3.6540    2.1097 C   0  0  0  0  0  4           0  0  0
    7.8830   -3.6540    2.1097 C   0  0  0  0  0  4           0  0  0
    8.4757   -4.8721    2.8129 C   0  0  0  0  0  4           0  0  0
   10.0019   -4.8721    2.8129 C   0  0  0  0  0  4           0  0  0
   10.5947   -6.0901    3.5161 C   0  0  0  0  0  4           0  0  0
   12.1162   -6.0890    3.5155 C   0  0  0  0  0  4           0  0  0
  1  8  1  0     0  0
  2 17  2  0     0  0
  3 18  2  0     0  0
  4 19  2  0     0  0
  5  6  1  0     0  0
  5  9  1  0     0  0
  6 10  2  0     0  0
  7 11  1  0     0  0
  7 17  1  0     0  0
  7 18  1  0     0  0
  8 11  2  0     0  0
  8 13  1  0     0  0
  9 12  2  0     0  0
  9 17  1  0     0  0
 10 12  1  0     0  0
 10 19  1  0     0  0
 11 14  1  0     0  0
 12 18  1  0     0  0
 13 15  2  0     0  0
 14 16  2  0     0  0
 15 16  1  0     0  0
 19 20  1  0     0  0
 20 21  1  0     0  0
 21 22  1  0     0  0
 22 23  1  0     0  0
 23 24  1  0     0  0
 24 25  1  0     0  0
 25 26  1  0     0  0
 26 27  1  0     0  0
 27 28  1  0     0  0
 28 29  1  0     0  0
 29 30  1  0     0  0
 30 31  1  0     0  0
 31 32  1  0     0  0
 32 33  1  0     0  0
 33 34  1  0     0  0
 34 35  1  0     0  0
 35 36  1  0     0  0
M  END
> <standard_type>
pIC50

> <# Confs.>
25

> <canonical_smiles>
BrC1=C(N2C(C(C(C(CCCCCCCCCCCCCCCCC)=O)=NN3)=C3C2=O)=O)C=CC=C1

> <standard_relation>
=

> <predicted_activity_value>
6.638272163982407

> <actual_activity_value>
6.6020599913279625

> <Compound>
23

> <publication_ID>
nan

> <standard_units>
nM

> hash
2370216192129740831

$$$$
23_
XXILIB    08252103423D 0   0.00000     0.00000

 36 38  0     1  0            999 V2000
  -12.4521   -2.5849    7.3656 Br  0  0  0  0  0  1           0  0  0
  -10.4888   -0.0133    8.4784 O   0  0  0  0  0  2           0  0  0
   -9.9363   -0.0350    3.8072 O   0  0  0  0  0  2           0  0  0
   -6.9384   -0.0000    3.1127 O   0  0  0  0  0  2           0  0  0
   -7.4262   -0.0163    7.5624 N   0  0  0  0  0  3           0  0  0
   -6.4357   -0.0128    6.6355 N   0  0  0  0  0  3           0  0  0
  -10.6669   -0.0241    6.0912 N   0  0  2  0  0  3           0  0  0
  -12.9672   -1.0214    6.4045 C   0  0  0  0  0  4           0  0  0
   -8.6465   -0.0188    6.9944 C   0  0  0  0  0  4           0  0  0
   -7.0792   -0.0127    5.4470 C   0  0  0  0  0  4           0  0  0
  -12.0879   -0.0252    5.9239 C   0  0  0  0  0  4           0  0  0
   -8.4634   -0.0213    5.6478 C   0  0  0  0  0  4           0  0  0
  -14.3541   -0.9156    6.1860 C   0  0  0  0  0  4           0  0  0
  -12.6679    1.0567    5.2219 C   0  0  0  0  0  4           0  0  0
  -14.8900    0.1635    5.4911 C   0  0  0  0  0  4           0  0  0
  -14.0457    1.1499    5.0079 C   0  0  0  0  0  4           0  0  0
  -10.0256   -0.0188    7.3492 C   0  0  0  0  0  4           0  0  0
   -9.7516   -0.0275    5.0130 C   0  0  0  0  0  4           0  0  0
   -6.3442   -0.0000    4.1907 C   0  0  0  0  0  4           0  0  0
   -4.8306    0.0000    4.2191 C   0  0  0  0  0  4           0  0  0
   -4.2380   -0.0000    2.8129 C   0  0  0  0  0  4           0  0  0
   -2.7117    0.0000    2.8129 C   0  0  0  0  0  4           0  0  0
   -2.1190   -0.0000    1.4064 C   0  0  0  0  0  4           0  0  0
   -0.5927    0.0000    1.4064 C   0  0  0  0  0  4           0  0  0
    0.0000   -0.0000    0.0000 C   0  0  0  0  0  4           0  0  0
    1.5260    0.0000    0.0000 C   0  0  0  0  0  4           0  0  0
    2.1188    0.0000   -1.4064 C   0  0  0  0  0  4           0  0  0
    3.6450   -0.0000   -1.4064 C   0  0  0  0  0  4           0  0  0
    4.2378   -0.0000   -2.8129 C   0  0  0  0  0  4           0  0  0
    5.7640   -0.0000   -2.8129 C   0  0  0  0  0  4           0  0  0
    6.3567   -1.2180   -2.1097 C   0  0  0  0  0  4           0  0  0
    7.8830   -1.2180   -2.1097 C   0  0  0  0  0  4           0  0  0
    8.4757   -2.4360   -1.4064 C   0  0  0  0  0  4           0  0  0
   10.0019   -2.4360   -1.4064 C   0  0  0  0  0  4           0  0  0
   10.5947   -3.6540   -0.7032 C   0  0  0  0  0  4           0  0  0
   12.1162   -3.6530   -0.7039 C   0  0  0  0  0  4           0  0  0
  1  8  1  0     0  0
  2 17  2  0     0  0
  3 18  2  0     0  0
  4 19  2  0     0  0
  5  6  1  0     0  0
  5  9  1  0     0  0
  6 10  2  0     0  0
  7 11  1  0     0  0
  7 17  1  0     0  0
  7 18  1  0     0  0
  8 11  2  0     0  0
  8 13  1  0     0  0
  9 12  2  0     0  0
  9 17  1  0     0  0
 10 12  1  0     0  0
 10 19  1  0     0  0
 11 14  1  0     0  0
 12 18  1  0     0  0
 13 15  2  0     0  0
 14 16  2  0     0  0
 15 16  1  0     0  0
 19 20  1  0     0  0
 20 21  1  0     0  0
 21 22  1  0     0  0
 22 23  1  0     0  0
 23 24  1  0     0  0
 24 25  1  0     0  0
 25 26  1  0     0  0
 26 27  1  0     0  0
 27 28  1  0     0  0
 28 29  1  0     0  0
 29 30  1  0     0  0
 30 31  1  0     0  0
 31 32  1  0     0  0
 32 33  1  0     0  0
 33 34  1  0     0  0
 34 35  1  0     0  0
 35 36  1  0     0  0
M  END
> <standard_type>
pIC50

> <# Confs.>
25

> <canonical_smiles>
BrC1=C(N2C(C(C(C(CCCCCCCCCCCCCCCCC)=O)=NN3)=C3C2=O)=O)C=CC=C1

> <standard_relation>
=

> <predicted_activity_value>
6.638272163982407

> <actual_activity_value>
6.6020599913279625

> <Compound>
23

> <publication_ID>
nan

> <standard_units>
nM

> hash
2370216192129740831

$$$$
23_
XXILIB    08252103423D 0   0.00000     0.00000

 36 38  0     1  0            999 V2000
  -12.4521   -2.5849    7.3656 Br  0  0  0  0  0  1           0  0  0
  -10.4888   -0.0133    8.4784 O   0  0  0  0  0  2           0  0  0
   -9.9363   -0.0350    3.8072 O   0  0  0  0  0  2           0  0  0
   -6.9384   -0.0000    3.1127 O   0  0  0  0  0  2           0  0  0
   -7.4262   -0.0163    7.5624 N   0  0  0  0  0  3           0  0  0
   -6.4357   -0.0128    6.6355 N   0  0  0  0  0  3           0  0  0
  -10.6669   -0.0241    6.0912 N   0  0  2  0  0  3           0  0  0
  -12.9672   -1.0214    6.4045 C   0  0  0  0  0  4           0  0  0
   -8.6465   -0.0188    6.9944 C   0  0  0  0  0  4           0  0  0
   -7.0792   -0.0127    5.4470 C   0  0  0  0  0  4           0  0  0
  -12.0879   -0.0252    5.9239 C   0  0  0  0  0  4           0  0  0
   -8.4634   -0.0213    5.6478 C   0  0  0  0  0  4           0  0  0
  -14.3541   -0.9156    6.1860 C   0  0  0  0  0  4           0  0  0
  -12.6679    1.0567    5.2219 C   0  0  0  0  0  4           0  0  0
  -14.8900    0.1635    5.4911 C   0  0  0  0  0  4           0  0  0
  -14.0457    1.1499    5.0079 C   0  0  0  0  0  4           0  0  0
  -10.0256   -0.0188    7.3492 C   0  0  0  0  0  4           0  0  0
   -9.7516   -0.0275    5.0130 C   0  0  0  0  0  4           0  0  0
   -6.3442   -0.0000    4.1907 C   0  0  0  0  0  4           0  0  0
   -4.8306    0.0000    4.2191 C   0  0  0  0  0  4           0  0  0
   -4.2380   -0.0000    2.8129 C   0  0  0  0  0  4           0  0  0
   -2.7117    0.0000    2.8129 C   0  0  0  0  0  4           0  0  0
   -2.1190   -0.0000    1.4064 C   0  0  0  0  0  4           0  0  0
   -0.5927    0.0000    1.4064 C   0  0  0  0  0  4           0  0  0
    0.0000   -0.0000    0.0000 C   0  0  0  0  0  4           0  0  0
    1.5260    0.0000    0.0000 C   0  0  0  0  0  4           0  0  0
    2.1188    0.0000   -1.4064 C   0  0  0  0  0  4           0  0  0
    3.6450    0.0000   -1.4064 C   0  0  0  0  0  4           0  0  0
    4.2378    0.0000   -2.8129 C   0  0  0  0  0  4           0  0  0
    5.7640    0.0000   -2.8129 C   0  0  0  0  0  4           0  0  0
    6.3567    0.0000   -4.2193 C   0  0  0  0  0  4           0  0  0
    5.9389    1.2180   -5.0386 C   0  0  0  0  0  4           0  0  0
    6.5316    1.2180   -6.4451 C   0  0  0  0  0  4           0  0  0
    6.1138    2.4360   -7.2644 C   0  0  0  0  0  4           0  0  0
    6.7065    2.4360   -8.6708 C   0  0  0  0  0  4           0  0  0
    6.2893    3.6507   -9.4866 C   0  0  0  0  0  4           0  0  0
  1  8  1  0     0  0
  2 17  2  0     0  0
  3 18  2  0     0  0
  4 19  2  0     0  0
  5  6  1  0     0  0
  5  9  1  0     0  0
  6 10  2  0     0  0
  7 11  1  0     0  0
  7 17  1  0     0  0
  7 18  1  0     0  0
  8 11  2  0     0  0
  8 13  1  0     0  0
  9 12  2  0     0  0
  9 17  1  0     0  0
 10 12  1  0     0  0
 10 19  1  0     0  0
 11 14  1  0     0  0
 12 18  1  0     0  0
 13 15  2  0     0  0
 14 16  2  0     0  0
 15 16  1  0     0  0
 19 20  1  0     0  0
 20 21  1  0     0  0
 21 22  1  0     0  0
 22 23  1  0     0  0
 23 24  1  0     0  0
 24 25  1  0     0  0
 25 26  1  0     0  0
 26 27  1  0     0  0
 27 28  1  0     0  0
 28 29  1  0     0  0
 29 30  1  0     0  0
 30 31  1  0     0  0
 31 32  1  0     0  0
 32 33  1  0     0  0
 33 34  1  0     0  0
 34 35  1  0     0  0
 35 36  1  0     0  0
M  END
> <standard_type>
pIC50

> <# Confs.>
25

> <canonical_smiles>
BrC1=C(N2C(C(C(C(CCCCCCCCCCCCCCCCC)=O)=NN3)=C3C2=O)=O)C=CC=C1

> <standard_relation>
=

> <predicted_activity_value>
6.638272163982407

> <actual_activity_value>
6.6020599913279625

> <Compound>
23

> <publication_ID>
nan

> <standard_units>
nM

> hash
2370216192129740831

$$$$
23_
XXILIB    08252103423D 0   0.00000     0.00000

 36 38  0     1  0            999 V2000
  -12.4521   -2.5849    7.3656 Br  0  0  0  0  0  1           0  0  0
  -10.4888   -0.0133    8.4784 O   0  0  0  0  0  2           0  0  0
   -9.9363   -0.0350    3.8072 O   0  0  0  0  0  2           0  0  0
   -6.9384   -0.0000    3.1127 O   0  0  0  0  0  2           0  0  0
   -7.4262   -0.0163    7.5624 N   0  0  0  0  0  3           0  0  0
   -6.4357   -0.0128    6.6355 N   0  0  0  0  0  3           0  0  0
  -10.6669   -0.0241    6.0912 N   0  0  2  0  0  3           0  0  0
  -12.9672   -1.0214    6.4045 C   0  0  0  0  0  4           0  0  0
   -8.6465   -0.0188    6.9944 C   0  0  0  0  0  4           0  0  0
   -7.0792   -0.0127    5.4470 C   0  0  0  0  0  4           0  0  0
  -12.0879   -0.0252    5.9239 C   0  0  0  0  0  4           0  0  0
   -8.4634   -0.0213    5.6478 C   0  0  0  0  0  4           0  0  0
  -14.3541   -0.9156    6.1860 C   0  0  0  0  0  4           0  0  0
  -12.6679    1.0567    5.2219 C   0  0  0  0  0  4           0  0  0
  -14.8900    0.1635    5.4911 C   0  0  0  0  0  4           0  0  0
  -14.0457    1.1499    5.0079 C   0  0  0  0  0  4           0  0  0
  -10.0256   -0.0188    7.3492 C   0  0  0  0  0  4           0  0  0
   -9.7516   -0.0275    5.0130 C   0  0  0  0  0  4           0  0  0
   -6.3442   -0.0000    4.1907 C   0  0  0  0  0  4           0  0  0
   -4.8306    0.0000    4.2191 C   0  0  0  0  0  4           0  0  0
   -4.2380   -0.0000    2.8129 C   0  0  0  0  0  4           0  0  0
   -2.7117    0.0000    2.8129 C   0  0  0  0  0  4           0  0  0
   -2.1190   -0.0000    1.4064 C   0  0  0  0  0  4           0  0  0
   -0.5927    0.0000    1.4064 C   0  0  0  0  0  4           0  0  0
    0.0000   -0.0000    0.0000 C   0  0  0  0  0  4           0  0  0
    1.5260    0.0000    0.0000 C   0  0  0  0  0  4           0  0  0
    2.1188    0.0000   -1.4064 C   0  0  0  0  0  4           0  0  0
    3.6450    0.0000   -1.4064 C   0  0  0  0  0  4           0  0  0
    4.2378    0.0000   -2.8129 C   0  0  0  0  0  4           0  0  0
    5.7640    0.0000   -2.8129 C   0  0  0  0  0  4           0  0  0
    6.3567    0.0000   -4.2193 C   0  0  0  0  0  4           0  0  0
    7.8830    0.0000   -4.2193 C   0  0  0  0  0  4           0  0  0
    8.4757   -1.2180   -3.5161 C   0  0  0  0  0  4           0  0  0
   10.0019   -1.2180   -3.5161 C   0  0  0  0  0  4           0  0  0
   10.5947   -2.4360   -2.8129 C   0  0  0  0  0  4           0  0  0
   12.1162   -2.4349   -2.8135 C   0  0  0  0  0  4           0  0  0
  1  8  1  0     0  0
  2 17  2  0     0  0
  3 18  2  0     0  0
  4 19  2  0     0  0
  5  6  1  0     0  0
  5  9  1  0     0  0
  6 10  2  0     0  0
  7 11  1  0     0  0
  7 17  1  0     0  0
  7 18  1  0     0  0
  8 11  2  0     0  0
  8 13  1  0     0  0
  9 12  2  0     0  0
  9 17  1  0     0  0
 10 12  1  0     0  0
 10 19  1  0     0  0
 11 14  1  0     0  0
 12 18  1  0     0  0
 13 15  2  0     0  0
 14 16  2  0     0  0
 15 16  1  0     0  0
 19 20  1  0     0  0
 20 21  1  0     0  0
 21 22  1  0     0  0
 22 23  1  0     0  0
 23 24  1  0     0  0
 24 25  1  0     0  0
 25 26  1  0     0  0
 26 27  1  0     0  0
 27 28  1  0     0  0
 28 29  1  0     0  0
 29 30  1  0     0  0
 30 31  1  0     0  0
 31 32  1  0     0  0
 32 33  1  0     0  0
 33 34  1  0     0  0
 34 35  1  0     0  0
 35 36  1  0     0  0
M  END
> <standard_type>
pIC50

> <# Confs.>
25

> <canonical_smiles>
BrC1=C(N2C(C(C(C(CCCCCCCCCCCCCCCCC)=O)=NN3)=C3C2=O)=O)C=CC=C1

> <standard_relation>
=

> <predicted_activity_value>
6.638272163982407

> <actual_activity_value>
6.6020599913279625

> <Compound>
23

> <publication_ID>
nan

> <standard_units>
nM

> hash
2370216192129740831

$$$$
23_
XXILIB    08252103423D 0   0.00000     0.00000

 36 38  0     1  0            999 V2000
  -12.4521   -2.5849    7.3656 Br  0  0  0  0  0  1           0  0  0
  -10.4888   -0.0133    8.4784 O   0  0  0  0  0  2           0  0  0
   -9.9363   -0.0350    3.8072 O   0  0  0  0  0  2           0  0  0
   -6.9384   -0.0000    3.1127 O   0  0  0  0  0  2           0  0  0
   -7.4262   -0.0163    7.5624 N   0  0  0  0  0  3           0  0  0
   -6.4357   -0.0128    6.6355 N   0  0  0  0  0  3           0  0  0
  -10.6669   -0.0241    6.0912 N   0  0  2  0  0  3           0  0  0
  -12.9672   -1.0214    6.4045 C   0  0  0  0  0  4           0  0  0
   -8.6465   -0.0188    6.9944 C   0  0  0  0  0  4           0  0  0
   -7.0792   -0.0127    5.4470 C   0  0  0  0  0  4           0  0  0
  -12.0879   -0.0252    5.9239 C   0  0  0  0  0  4           0  0  0
   -8.4634   -0.0213    5.6478 C   0  0  0  0  0  4           0  0  0
  -14.3541   -0.9156    6.1860 C   0  0  0  0  0  4           0  0  0
  -12.6679    1.0567    5.2219 C   0  0  0  0  0  4           0  0  0
  -14.8900    0.1635    5.4911 C   0  0  0  0  0  4           0  0  0
  -14.0457    1.1499    5.0079 C   0  0  0  0  0  4           0  0  0
  -10.0256   -0.0188    7.3492 C   0  0  0  0  0  4           0  0  0
   -9.7516   -0.0275    5.0130 C   0  0  0  0  0  4           0  0  0
   -6.3442   -0.0000    4.1907 C   0  0  0  0  0  4           0  0  0
   -4.8306    0.0000    4.2191 C   0  0  0  0  0  4           0  0  0
   -4.2380   -0.0000    2.8129 C   0  0  0  0  0  4           0  0  0
   -2.7117    0.0000    2.8129 C   0  0  0  0  0  4           0  0  0
   -2.1190   -0.0000    1.4064 C   0  0  0  0  0  4           0  0  0
   -0.5927    0.0000    1.4064 C   0  0  0  0  0  4           0  0  0
    0.0000   -0.0000    0.0000 C   0  0  0  0  0  4           0  0  0
    1.5260    0.0000    0.0000 C   0  0  0  0  0  4           0  0  0
    2.1188    0.0000   -1.4064 C   0  0  0  0  0  4           0  0  0
    3.6450    0.0000   -1.4064 C   0  0  0  0  0  4           0  0  0
    4.2378    0.0000   -2.8129 C   0  0  0  0  0  4           0  0  0
    5.7640    0.0000   -2.8129 C   0  0  0  0  0  4           0  0  0
    6.3567    0.0000   -4.2193 C   0  0  0  0  0  4           0  0  0
    7.8830    0.0000   -4.2193 C   0  0  0  0  0  4           0  0  0
    8.4757    0.0000   -5.6258 C   0  0  0  0  0  4           0  0  0
    8.0579    1.2180   -6.4451 C   0  0  0  0  0  4           0  0  0
    8.6506    1.2180   -7.8515 C   0  0  0  0  0  4           0  0  0
    8.2334    2.4327   -8.6673 C   0  0  0  0  0  4           0  0  0
  1  8  1  0     0  0
  2 17  2  0     0  0
  3 18  2  0     0  0
  4 19  2  0     0  0
  5  6  1  0     0  0
  5  9  1  0     0  0
  6 10  2  0     0  0
  7 11  1  0     0  0
  7 17  1  0     0  0
  7 18  1  0     0  0
  8 11  2  0     0  0
  8 13  1  0     0  0
  9 12  2  0     0  0
  9 17  1  0     0  0
 10 12  1  0     0  0
 10 19  1  0     0  0
 11 14  1  0     0  0
 12 18  1  0     0  0
 13 15  2  0     0  0
 14 16  2  0     0  0
 15 16  1  0     0  0
 19 20  1  0     0  0
 20 21  1  0     0  0
 21 22  1  0     0  0
 22 23  1  0     0  0
 23 24  1  0     0  0
 24 25  1  0     0  0
 25 26  1  0     0  0
 26 27  1  0     0  0
 27 28  1  0     0  0
 28 29  1  0     0  0
 29 30  1  0     0  0
 30 31  1  0     0  0
 31 32  1  0     0  0
 32 33  1  0     0  0
 33 34  1  0     0  0
 34 35  1  0     0  0
 35 36  1  0     0  0
M  END
> <standard_type>
pIC50

> <# Confs.>
25

> <canonical_smiles>
BrC1=C(N2C(C(C(C(CCCCCCCCCCCCCCCCC)=O)=NN3)=C3C2=O)=O)C=CC=C1

> <standard_relation>
=

> <predicted_activity_value>
6.638272163982407

> <actual_activity_value>
6.6020599913279625

> <Compound>
23

> <publication_ID>
nan

> <standard_units>
nM

> hash
2370216192129740831

$$$$
23_
XXILIB    08252103423D 0   0.00000     0.00000

 36 38  0     1  0            999 V2000
    1.5179   -6.1677   13.2531 Br  0  0  0  0  0  1           0  0  0
   -1.6693   -5.5124   12.1953 O   0  0  0  0  0  2           0  0  0
    0.7043   -6.6317    8.2916 O   0  0  0  0  0  2           0  0  0
    0.2285   -4.4903    6.1332 O   0  0  0  0  0  2           0  0  0
   -2.0136   -3.3749    9.8436 N   0  0  0  0  0  3           0  0  0
   -1.7900   -2.8979    8.5934 N   0  0  0  0  0  3           0  0  0
   -0.3304   -6.4520   10.4475 N   0  0  2  0  0  3           0  0  0
    0.9270   -7.6838   12.2601 C   0  0  0  0  0  4           0  0  0
   -1.3726   -4.5385   10.0599 C   0  0  0  0  0  4           0  0  0
   -0.9759   -3.8112    8.0191 C   0  0  0  0  0  4           0  0  0
    0.1493   -7.6418   11.0812 C   0  0  0  0  0  4           0  0  0
   -0.6979   -4.8441    8.9205 C   0  0  0  0  0  4           0  0  0
    1.3395   -8.9170   12.8000 C   0  0  0  0  0  4           0  0  0
   -0.1785   -8.8817   10.4854 C   0  0  0  0  0  4           0  0  0
    0.9981  -10.1179   12.1870 C   0  0  0  0  0  4           0  0  0
    0.2392  -10.0998   11.0281 C   0  0  0  0  0  4           0  0  0
   -1.1856   -5.5197   11.0748 C   0  0  0  0  0  4           0  0  0
    0.0005   -6.0825    9.1230 C   0  0  0  0  0  4           0  0  0
   -0.5128   -3.6536    6.6483 C   0  0  0  0  0  4           0  0  0
   -0.9425   -2.4360    5.8578 C   0  0  0  0  0  4           0  0  0
   -0.3498   -2.4360    4.4515 C   0  0  0  0  0  4           0  0  0
   -0.7676   -1.2180    3.6322 C   0  0  0  0  0  4           0  0  0
   -0.1749   -1.2180    2.2258 C   0  0  0  0  0  4           0  0  0
   -0.5927   -0.0000    1.4064 C   0  0  0  0  0  4           0  0  0
    0.0000    0.0000    0.0000 C   0  0  0  0  0  4           0  0  0
    1.5260    0.0000    0.0000 C   0  0  0  0  0  4           0  0  0
    2.1188    0.0000   -1.4064 C   0  0  0  0  0  4           0  0  0
    3.6450    0.0000   -1.4064 C   0  0  0  0  0  4           0  0  0
    4.2378    0.0000   -2.8129 C   0  0  0  0  0  4           0  0  0
    5.7640    0.0000   -2.8129 C   0  0  0  0  0  4           0  0  0
    6.3567    0.0000   -4.2193 C   0  0  0  0  0  4           0  0  0
    7.8830    0.0000   -4.2193 C   0  0  0  0  0  4           0  0  0
    8.4757    0.0000   -5.6258 C   0  0  0  0  0  4           0  0  0
   10.0019    0.0000   -5.6258 C   0  0  0  0  0  4           0  0  0
   10.5947    0.0000   -7.0322 C   0  0  0  0  0  4           0  0  0
   12.1162    0.0000   -7.0310 C   0  0  0  0  0  4           0  0  0
  1  8  1  0     0  0
  2 17  2  0     0  0
  3 18  2  0     0  0
  4 19  2  0     0  0
  5  6  1  0     0  0
  5  9  1  0     0  0
  6 10  2  0     0  0
  7 11  1  0     0  0
  7 17  1  0     0  0
  7 18  1  0     0  0
  8 11  2  0     0  0
  8 13  1  0     0  0
  9 12  2  0     0  0
  9 17  1  0     0  0
 10 12  1  0     0  0
 10 19  1  0     0  0
 11 14  1  0     0  0
 12 18  1  0     0  0
 13 15  2  0     0  0
 14 16  2  0     0  0
 15 16  1  0     0  0
 19 20  1  0     0  0
 20 21  1  0     0  0
 21 22  1  0     0  0
 22 23  1  0     0  0
 23 24  1  0     0  0
 24 25  1  0     0  0
 25 26  1  0     0  0
 26 27  1  0     0  0
 27 28  1  0     0  0
 28 29  1  0     0  0
 29 30  1  0     0  0
 30 31  1  0     0  0
 31 32  1  0     0  0
 32 33  1  0     0  0
 33 34  1  0     0  0
 34 35  1  0     0  0
 35 36  1  0     0  0
M  END
> <standard_type>
pIC50

> <# Confs.>
25

> <canonical_smiles>
BrC1=C(N2C(C(C(C(CCCCCCCCCCCCCCCCC)=O)=NN3)=C3C2=O)=O)C=CC=C1

> <standard_relation>
=

> <predicted_activity_value>
6.638272163982407

> <actual_activity_value>
6.6020599913279625

> <Compound>
23

> <publication_ID>
nan

> <standard_units>
nM

> hash
2370216192129740831

$$$$
23_
XXILIB    08252103423D 0   0.00000     0.00000

 36 38  0     1  0            999 V2000
  -12.4521   -2.5849    7.3656 Br  0  0  0  0  0  1           0  0  0
  -10.4888   -0.0133    8.4784 O   0  0  0  0  0  2           0  0  0
   -9.9363   -0.0350    3.8072 O   0  0  0  0  0  2           0  0  0
   -6.9384   -0.0000    3.1127 O   0  0  0  0  0  2           0  0  0
   -7.4262   -0.0163    7.5624 N   0  0  0  0  0  3           0  0  0
   -6.4357   -0.0128    6.6355 N   0  0  0  0  0  3           0  0  0
  -10.6669   -0.0241    6.0912 N   0  0  2  0  0  3           0  0  0
  -12.9672   -1.0214    6.4045 C   0  0  0  0  0  4           0  0  0
   -8.6465   -0.0188    6.9944 C   0  0  0  0  0  4           0  0  0
   -7.0792   -0.0127    5.4470 C   0  0  0  0  0  4           0  0  0
  -12.0879   -0.0252    5.9239 C   0  0  0  0  0  4           0  0  0
   -8.4634   -0.0213    5.6478 C   0  0  0  0  0  4           0  0  0
  -14.3541   -0.9156    6.1860 C   0  0  0  0  0  4           0  0  0
  -12.6679    1.0567    5.2219 C   0  0  0  0  0  4           0  0  0
  -14.8900    0.1635    5.4911 C   0  0  0  0  0  4           0  0  0
  -14.0457    1.1499    5.0079 C   0  0  0  0  0  4           0  0  0
  -10.0256   -0.0188    7.3492 C   0  0  0  0  0  4           0  0  0
   -9.7516   -0.0275    5.0130 C   0  0  0  0  0  4           0  0  0
   -6.3442   -0.0000    4.1907 C   0  0  0  0  0  4           0  0  0
   -4.8306    0.0000    4.2191 C   0  0  0  0  0  4           0  0  0
   -4.2380   -0.0000    2.8129 C   0  0  0  0  0  4           0  0  0
   -2.7117    0.0000    2.8129 C   0  0  0  0  0  4           0  0  0
   -2.1190   -0.0000    1.4064 C   0  0  0  0  0  4           0  0  0
   -0.5927    0.0000    1.4064 C   0  0  0  0  0  4           0  0  0
    0.0000   -0.0000    0.0000 C   0  0  0  0  0  4           0  0  0
    1.5260    0.0000   -0.0000 C   0  0  0  0  0  4           0  0  0
    2.1188    0.0000   -1.4064 C   0  0  0  0  0  4           0  0  0
    3.6450   -0.0000   -1.4064 C   0  0  0  0  0  4           0  0  0
    4.2378    1.2180   -0.7032 C   0  0  0  0  0  4           0  0  0
    5.7640    1.2180   -0.7032 C   0  0  0  0  0  4           0  0  0
    6.3567    2.4360   -0.0000 C   0  0  0  0  0  4           0  0  0
    7.8830    2.4360   -0.0000 C   0  0  0  0  0  4           0  0  0
    8.4757    3.6540    0.7032 C   0  0  0  0  0  4           0  0  0
   10.0019    3.6540    0.7032 C   0  0  0  0  0  4           0  0  0
   10.5947    4.8721    1.4064 C   0  0  0  0  0  4           0  0  0
   12.1162    4.8710    1.4058 C   0  0  0  0  0  4           0  0  0
  1  8  1  0     0  0
  2 17  2  0     0  0
  3 18  2  0     0  0
  4 19  2  0     0  0
  5  6  1  0     0  0
  5  9  1  0     0  0
  6 10  2  0     0  0
  7 11  1  0     0  0
  7 17  1  0     0  0
  7 18  1  0     0  0
  8 11  2  0     0  0
  8 13  1  0     0  0
  9 12  2  0     0  0
  9 17  1  0     0  0
 10 12  1  0     0  0
 10 19  1  0     0  0
 11 14  1  0     0  0
 12 18  1  0     0  0
 13 15  2  0     0  0
 14 16  2  0     0  0
 15 16  1  0     0  0
 19 20  1  0     0  0
 20 21  1  0     0  0
 21 22  1  0     0  0
 22 23  1  0     0  0
 23 24  1  0     0  0
 24 25  1  0     0  0
 25 26  1  0     0  0
 26 27  1  0     0  0
 27 28  1  0     0  0
 28 29  1  0     0  0
 29 30  1  0     0  0
 30 31  1  0     0  0
 31 32  1  0     0  0
 32 33  1  0     0  0
 33 34  1  0     0  0
 34 35  1  0     0  0
 35 36  1  0     0  0
M  END
> <standard_type>
pIC50

> <# Confs.>
25

> <canonical_smiles>
BrC1=C(N2C(C(C(C(CCCCCCCCCCCCCCCCC)=O)=NN3)=C3C2=O)=O)C=CC=C1

> <standard_relation>
=

> <predicted_activity_value>
6.638272163982407

> <actual_activity_value>
6.6020599913279625

> <Compound>
23

> <publication_ID>
nan

> <standard_units>
nM

> hash
2370216192129740831

$$$$
37_
XXILIB    08252103423D 0   0.00000     0.00000

 20 22  0     1  0            999 V2000
   -4.5672    0.0099   -0.8614 F   0  0  0  0  0  1           0  0  0
    1.4754    2.0750    1.1857 O   0  0  0  0  0  2           0  0  0
    4.3454   -1.7777   -1.0985 O   0  0  0  0  0  2           0  0  0
    1.6600   -2.0808   -1.2004 O   0  0  0  0  0  2           0  0  0
    4.2168    2.2494    1.3191 O   0  0  0  0  0  2           0  0  0
   -2.0895   -0.0005    0.7813 N   0  0  0  0  0  3           0  0  0
   -3.3391    0.0072   -1.3971 C   0  0  0  0  0  4           0  0  0
   -2.2007    0.0026   -0.5873 C   0  0  0  0  0  4           0  0  0
   -0.7712    0.0000    1.1467 C   0  0  0  0  0  4           0  0  0
   -0.9042    0.0024   -1.1146 C   0  0  0  0  0  4           0  0  0
    0.0000   -0.0000    0.0000 C   0  0  0  0  0  4           0  0  0
   -3.1833    0.0113   -2.7804 C   0  0  0  0  0  4           0  0  0
   -0.7684    0.0075   -2.5230 C   0  0  0  0  0  4           0  0  0
   -1.9098    0.0115   -3.3378 C   0  0  0  0  0  4           0  0  0
    2.1122    1.1594    0.6694 C   0  0  0  0  0  4           0  0  0
    3.6658   -0.9064   -0.5636 C   0  0  0  0  0  4           0  0  0
    2.1817   -0.9633   -0.5748 C   0  0  0  0  0  4           0  0  0
    3.5931    1.1909    0.6907 C   0  0  0  0  0  4           0  0  0
    1.4317    0.0000    0.0000 C   0  0  0  0  0  4           0  0  0
    4.3111    0.2283    0.1145 C   0  0  0  0  0  4           0  0  0
  1  7  1  0     0  0
  2 15  2  0     0  0
  3 16  2  0     0  0
  4 17  1  0     0  0
  5 18  1  0     0  0
  6  8  1  0     0  0
  6  9  1  0     0  0
  7  8  1  0     0  0
  7 12  2  0     0  0
  8 10  2  0     0  0
  9 11  2  0     0  0
 10 11  1  0     0  0
 10 13  1  0     0  0
 11 19  1  0     0  0
 12 14  1  0     0  0
 13 14  2  0     0  0
 15 18  1  0     0  0
 15 19  1  0     0  0
 16 17  1  0     0  0
 16 20  1  0     0  0
 17 19  2  0     0  0
 18 20  2  0     0  0
M  END
> <standard_type>
pIC50

> <# Confs.>
2

> <canonical_smiles>
O=C(C(O)=C1)C(C2=CNC3=C2C=CC=C3F)=C(O)C1=O

> <standard_relation>
=

> <predicted_activity_value>
4.947306058075032

> <actual_activity_value>
4.638272163982407

> <Compound>
37

> <publication_ID>
nan

> <standard_units>
nM

> hash
18049797180231528840

$$$$
37_
XXILIB    08252103423D 0   0.00000     0.00000

 20 22  0     1  0            999 V2000
   -4.5672    0.0099   -0.8614 F   0  0  0  0  0  1           0  0  0
    1.4754   -2.0644    1.2042 O   0  0  0  0  0  2           0  0  0
    4.3454    1.8401   -0.9903 O   0  0  0  0  0  2           0  0  0
    1.6600    2.0800   -1.2019 O   0  0  0  0  0  2           0  0  0
    4.2168   -2.2671    1.2885 O   0  0  0  0  0  2           0  0  0
   -2.0895   -0.0005    0.7813 N   0  0  0  0  0  3           0  0  0
   -3.3391    0.0072   -1.3971 C   0  0  0  0  0  4           0  0  0
   -2.2007    0.0026   -0.5873 C   0  0  0  0  0  4           0  0  0
   -0.7712    0.0000    1.1467 C   0  0  0  0  0  4           0  0  0
   -0.9042    0.0024   -1.1146 C   0  0  0  0  0  4           0  0  0
    0.0000   -0.0000    0.0000 C   0  0  0  0  0  4           0  0  0
   -3.1833    0.0113   -2.7804 C   0  0  0  0  0  4           0  0  0
   -0.7684    0.0075   -2.5230 C   0  0  0  0  0  4           0  0  0
   -1.9098    0.0115   -3.3378 C   0  0  0  0  0  4           0  0  0
    2.1122   -1.1594    0.6694 C   0  0  0  0  0  4           0  0  0
    3.6658    0.9413   -0.5032 C   0  0  0  0  0  4           0  0  0
    2.1817    0.9794   -0.5468 C   0  0  0  0  0  4           0  0  0
    3.5931   -1.1936    0.6860 C   0  0  0  0  0  4           0  0  0
    1.4317   -0.0000    0.0000 C   0  0  0  0  0  4           0  0  0
    4.3111   -0.2133    0.1404 C   0  0  0  0  0  4           0  0  0
  1  7  1  0     0  0
  2 15  2  0     0  0
  3 16  2  0     0  0
  4 17  1  0     0  0
  5 18  1  0     0  0
  6  8  1  0     0  0
  6  9  1  0     0  0
  7  8  1  0     0  0
  7 12  2  0     0  0
  8 10  2  0     0  0
  9 11  2  0     0  0
 10 11  1  0     0  0
 10 13  1  0     0  0
 11 19  1  0     0  0
 12 14  1  0     0  0
 13 14  2  0     0  0
 15 18  1  0     0  0
 15 19  1  0     0  0
 16 17  1  0     0  0
 16 20  1  0     0  0
 17 19  2  0     0  0
 18 20  2  0     0  0
M  END
> <standard_type>
pIC50

> <# Confs.>
2

> <canonical_smiles>
O=C(C(O)=C1)C(C2=CNC3=C2C=CC=C3F)=C(O)C1=O

> <standard_relation>
=

> <predicted_activity_value>
4.947306058075032

> <actual_activity_value>
4.638272163982407

> <Compound>
37

> <publication_ID>
nan

> <standard_units>
nM

> hash
18049797180231528840

$$$$
35_
XXILIB    08252103423D 0   0.00000     0.00000

 20 22  0     1  0            999 V2000
    1.4713   -2.3881    0.0287 O   0  0  0  0  0  2           0  0  0
    4.3453    2.0860    0.0778 O   0  0  0  0  0  2           0  0  0
    1.6606    2.4016    0.0009 O   0  0  0  0  0  2           0  0  0
    4.1758   -2.6297   -0.0653 O   0  0  0  0  0  2           0  0  0
   -2.0652    0.0411    0.8193 N   0  0  0  0  0  3           0  0  0
   -2.2032    0.0547   -0.5492 C   0  0  0  0  0  4           0  0  0
   -0.7449    0.0000    1.1614 C   0  0  0  0  0  4           0  0  0
   -0.9184    0.0091   -1.1093 C   0  0  0  0  0  4           0  0  0
    0.0000    0.0000    0.0000 C   0  0  0  0  0  4           0  0  0
   -0.8059   -0.0293   -2.5298 C   0  0  0  0  0  4           0  0  0
   -3.3755    0.1014   -1.3105 C   0  0  0  0  0  4           0  0  0
   -1.9940    0.0373   -3.2916 C   0  0  0  0  0  4           0  0  0
   -3.2490    0.1003   -2.6955 C   0  0  0  0  0  4           0  0  0
    2.1115   -1.3391   -0.0000 C   0  0  0  0  0  4           0  0  0
    3.6653    1.0650    0.0348 C   0  0  0  0  0  4           0  0  0
    2.1819    1.1210    0.0167 C   0  0  0  0  0  4           0  0  0
    3.5914   -1.3804   -0.0274 C   0  0  0  0  0  4           0  0  0
    1.4317   -0.0000   -0.0000 C   0  0  0  0  0  4           0  0  0
    0.4975   -0.1168   -3.2781 C   0  0  0  0  0  4           0  0  0
    4.3100   -0.2567   -0.0087 C   0  0  0  0  0  4           0  0  0
  1 14  2  0     0  0
  2 15  2  0     0  0
  3 16  1  0     0  0
  4 17  1  0     0  0
  5  6  1  0     0  0
  5  7  1  0     0  0
  6  8  2  0     0  0
  6 11  1  0     0  0
  7  9  2  0     0  0
  8  9  1  0     0  0
  8 10  1  0     0  0
  9 18  1  0     0  0
 10 12  2  0     0  0
 10 19  1  0     0  0
 11 13  2  0     0  0
 12 13  1  0     0  0
 14 17  1  0     0  0
 14 18  1  0     0  0
 15 16  1  0     0  0
 15 20  1  0     0  0
 16 18  2  0     0  0
 17 20  2  0     0  0
M  END
> <standard_type>
pIC50

> <# Confs.>
2

> <canonical_smiles>
O=C(C(O)=C1)C(C2=CNC3=C2C(C)=CC=C3)=C(O)C1=O

> <standard_relation>
=

> <predicted_activity_value>
5.303643611266668

> <actual_activity_value>
5.045757490560675

> <Compound>
35

> <publication_ID>
nan

> <standard_units>
nM

> hash
16355523757168676158

$$$$
35_
XXILIB    08252103423D 0   0.00000     0.00000

 20 22  0     1  0            999 V2000
    1.4713    2.3881   -0.0287 O   0  0  0  0  0  2           0  0  0
    4.3453   -2.0860   -0.0778 O   0  0  0  0  0  2           0  0  0
    1.6606   -2.4016   -0.0009 O   0  0  0  0  0  2           0  0  0
    4.1758    2.6297    0.0653 O   0  0  0  0  0  2           0  0  0
   -2.0652    0.0411    0.8193 N   0  0  0  0  0  3           0  0  0
   -2.2032    0.0547   -0.5492 C   0  0  0  0  0  4           0  0  0
   -0.7449    0.0000    1.1614 C   0  0  0  0  0  4           0  0  0
   -0.9184    0.0091   -1.1093 C   0  0  0  0  0  4           0  0  0
    0.0000    0.0000    0.0000 C   0  0  0  0  0  4           0  0  0
   -0.8059   -0.0293   -2.5298 C   0  0  0  0  0  4           0  0  0
   -3.3755    0.1014   -1.3105 C   0  0  0  0  0  4           0  0  0
   -1.9940    0.0373   -3.2916 C   0  0  0  0  0  4           0  0  0
   -3.2490    0.1003   -2.6955 C   0  0  0  0  0  4           0  0  0
    2.1115    1.3391    0.0000 C   0  0  0  0  0  4           0  0  0
    3.6653   -1.0650   -0.0348 C   0  0  0  0  0  4           0  0  0
    2.1819   -1.1210   -0.0167 C   0  0  0  0  0  4           0  0  0
    3.5914    1.3804    0.0274 C   0  0  0  0  0  4           0  0  0
    1.4317   -0.0000    0.0000 C   0  0  0  0  0  4           0  0  0
    0.4975   -0.1168   -3.2781 C   0  0  0  0  0  4           0  0  0
    4.3100    0.2567    0.0087 C   0  0  0  0  0  4           0  0  0
  1 14  2  0     0  0
  2 15  2  0     0  0
  3 16  1  0     0  0
  4 17  1  0     0  0
  5  6  1  0     0  0
  5  7  1  0     0  0
  6  8  2  0     0  0
  6 11  1  0     0  0
  7  9  2  0     0  0
  8  9  1  0     0  0
  8 10  1  0     0  0
  9 18  1  0     0  0
 10 12  2  0     0  0
 10 19  1  0     0  0
 11 13  2  0     0  0
 12 13  1  0     0  0
 14 17  1  0     0  0
 14 18  1  0     0  0
 15 16  1  0     0  0
 15 20  1  0     0  0
 16 18  2  0     0  0
 17 20  2  0     0  0
M  END
> <standard_type>
pIC50

> <# Confs.>
2

> <canonical_smiles>
O=C(C(O)=C1)C(C2=CNC3=C2C(C)=CC=C3)=C(O)C1=O

> <standard_relation>
=

> <predicted_activity_value>
5.303643611266668

> <actual_activity_value>
5.045757490560675

> <Compound>
35

> <publication_ID>
nan

> <standard_units>
nM

> hash
16355523757168676158

$$$$
30_
XXILIB    08252103423D 0   0.00000     0.00000

 22 24  0     1  0            999 V2000
    0.4803   -2.1271   -2.2636 O   0  0  0  0  0  2           0  0  0
   -1.1202    1.7813   -5.4953 O   0  0  0  0  0  2           0  0  0
   -1.7600    2.0447   -2.8387 O   0  0  0  0  0  2           0  0  0
    1.2343   -2.2623   -4.8663 O   0  0  0  0  0  2           0  0  0
   -0.7019    0.0000    1.1844 N   0  0  0  0  0  3           0  0  0
   -2.0551    0.0292    0.9571 C   0  0  0  0  0  4           0  0  0
    0.0000    0.0000    0.0000 C   0  0  0  0  0  4           0  0  0
   -2.2415    0.0222   -0.4254 C   0  0  0  0  0  4           0  0  0
   -0.9376   -0.0017   -1.0262 C   0  0  0  0  0  4           0  0  0
   -3.1153    0.0555    1.8709 C   0  0  0  0  0  4           0  0  0
   -3.5680    0.0230   -0.9142 C   0  0  0  0  0  4           0  0  0
   -4.4141    0.0698    1.3589 C   0  0  0  0  0  4           0  0  0
   -4.6397    0.0509   -0.0138 C   0  0  0  0  0  4           0  0  0
    0.1369   -1.1858   -2.9754 C   0  0  0  0  0  4           0  0  0
   -0.7311    0.9042   -4.7306 C   0  0  0  0  0  4           0  0  0
   -1.0457    0.9441   -3.2805 C   0  0  0  0  0  4           0  0  0
    0.4835   -1.1952   -4.4167 C   0  0  0  0  0  4           0  0  0
   -0.6440   -0.0218   -2.4315 C   0  0  0  0  0  4           0  0  0
    1.4959    0.0000   -0.0000 C   0  0  2  0  0  4           0  0  0
    0.0734   -0.2207   -5.2303 C   0  0  0  0  0  4           0  0  0
    2.0430   -1.2367    0.7140 C   0  0  0  0  0  4           0  0  0
    2.0449    1.2771    0.6374 C   0  0  0  0  0  4           0  0  0
  1 14  2  0     0  0
  2 15  2  0     0  0
  3 16  1  0     0  0
  4 17  1  0     0  0
  5  6  1  0     0  0
  5  7  1  0     0  0
  6  8  1  0     0  0
  6 10  2  0     0  0
  7  9  2  0     0  0
  7 19  1  0     0  0
  8  9  1  0     0  0
  8 11  2  0     0  0
  9 18  1  0     0  0
 10 12  1  0     0  0
 11 13  1  0     0  0
 12 13  2  0     0  0
 14 17  1  0     0  0
 14 18  1  0     0  0
 15 16  1  0     0  0
 15 20  1  0     0  0
 16 18  2  0     0  0
 17 20  2  0     0  0
 19 21  1  0     0  0
 19 22  1  0     0  0
M  END
> <standard_type>
pIC50

> <# Confs.>
12

> <canonical_smiles>
CC(C)C1=C(C(C(C(O)=C2)=O)=C(O)C2=O)C3=CC=CC=C3N1

> <standard_relation>
=

> <predicted_activity_value>
5.366531544420414

> <actual_activity_value>
5.327902142064283

> <Compound>
30

> <publication_ID>
nan

> <standard_units>
nM

> hash
7442244374319133704

$$$$
30_
XXILIB    08252103423D 0   0.00000     0.00000

 22 24  0     1  0            999 V2000
   -0.6095   -2.4137   -2.4863 O   0  0  0  0  0  2           0  0  0
    0.0076    2.0807   -5.2628 O   0  0  0  0  0  2           0  0  0
   -0.5857    2.3554   -2.5978 O   0  0  0  0  0  2           0  0  0
   -0.1722   -2.6360   -5.1540 O   0  0  0  0  0  2           0  0  0
   -0.7019    0.0000    1.1844 N   0  0  0  0  0  3           0  0  0
   -2.0551    0.0292    0.9571 C   0  0  0  0  0  4           0  0  0
    0.0000    0.0000    0.0000 C   0  0  0  0  0  4           0  0  0
   -2.2415    0.0222   -0.4254 C   0  0  0  0  0  4           0  0  0
   -0.9376   -0.0017   -1.0262 C   0  0  0  0  0  4           0  0  0
   -3.1153    0.0555    1.8709 C   0  0  0  0  0  4           0  0  0
   -3.5680    0.0230   -0.9142 C   0  0  0  0  0  4           0  0  0
   -4.4141    0.0698    1.3589 C   0  0  0  0  0  4           0  0  0
   -4.6397    0.0509   -0.0138 C   0  0  0  0  0  4           0  0  0
   -0.5144   -1.3577   -3.1082 C   0  0  0  0  0  4           0  0  0
   -0.1668    1.0539   -4.6140 C   0  0  0  0  0  4           0  0  0
   -0.4695    1.0966   -3.1617 C   0  0  0  0  0  4           0  0  0
   -0.2493   -1.3898   -4.5664 C   0  0  0  0  0  4           0  0  0
   -0.6441   -0.0218   -2.4312 C   0  0  0  0  0  4           0  0  0
    1.4959    0.0000   -0.0000 C   0  0  2  0  0  4           0  0  0
   -0.0862   -0.2635   -5.2623 C   0  0  0  0  0  4           0  0  0
    2.0430   -1.2367    0.7140 C   0  0  0  0  0  4           0  0  0
    2.0449    1.2771    0.6374 C   0  0  0  0  0  4           0  0  0
  1 14  2  0     0  0
  2 15  2  0     0  0
  3 16  1  0     0  0
  4 17  1  0     0  0
  5  6  1  0     0  0
  5  7  1  0     0  0
  6  8  1  0     0  0
  6 10  2  0     0  0
  7  9  2  0     0  0
  7 19  1  0     0  0
  8  9  1  0     0  0
  8 11  2  0     0  0
  9 18  1  0     0  0
 10 12  1  0     0  0
 11 13  1  0     0  0
 12 13  2  0     0  0
 14 17  1  0     0  0
 14 18  1  0     0  0
 15 16  1  0     0  0
 15 20  1  0     0  0
 16 18  2  0     0  0
 17 20  2  0     0  0
 19 21  1  0     0  0
 19 22  1  0     0  0
M  END
> <standard_type>
pIC50

> <# Confs.>
12

> <canonical_smiles>
CC(C)C1=C(C(C(C(O)=C2)=O)=C(O)C2=O)C3=CC=CC=C3N1

> <standard_relation>
=

> <predicted_activity_value>
5.366531544420414

> <actual_activity_value>
5.327902142064283

> <Compound>
30

> <publication_ID>
nan

> <standard_units>
nM

> hash
7442244374319133704

$$$$
30_
XXILIB    08252103423D 0   0.00000     0.00000

 22 24  0     1  0            999 V2000
   -0.5500    2.3664   -2.5431 O   0  0  0  0  0  2           0  0  0
   -0.0382   -2.2046   -5.2123 O   0  0  0  0  0  2           0  0  0
   -0.6377   -2.4028   -2.5407 O   0  0  0  0  0  2           0  0  0
   -0.1237    2.5158   -5.2183 O   0  0  0  0  0  2           0  0  0
   -0.7019    0.0000    1.1844 N   0  0  0  0  0  3           0  0  0
   -2.0551    0.0292    0.9571 C   0  0  0  0  0  4           0  0  0
    0.0000    0.0000    0.0000 C   0  0  0  0  0  4           0  0  0
   -2.2415    0.0222   -0.4254 C   0  0  0  0  0  4           0  0  0
   -0.9376   -0.0017   -1.0262 C   0  0  0  0  0  4           0  0  0
   -3.1153    0.0555    1.8709 C   0  0  0  0  0  4           0  0  0
   -3.5680    0.0230   -0.9142 C   0  0  0  0  0  4           0  0  0
   -4.4141    0.0698    1.3589 C   0  0  0  0  0  4           0  0  0
   -4.6397    0.0509   -0.0138 C   0  0  0  0  0  4           0  0  0
   -0.4842    1.2944   -3.1406 C   0  0  0  0  0  4           0  0  0
   -0.1912   -1.1593   -4.5883 C   0  0  0  0  0  4           0  0  0
   -0.4943   -1.1608   -3.1352 C   0  0  0  0  0  4           0  0  0
   -0.2247    1.2861   -4.6001 C   0  0  0  0  0  4           0  0  0
   -0.6440   -0.0218   -2.4315 C   0  0  0  0  0  4           0  0  0
    1.4959    0.0000   -0.0000 C   0  0  2  0  0  4           0  0  0
   -0.0855    0.1401   -5.2687 C   0  0  0  0  0  4           0  0  0
    2.0430   -1.2367    0.7140 C   0  0  0  0  0  4           0  0  0
    2.0449    1.2771    0.6374 C   0  0  0  0  0  4           0  0  0
  1 14  2  0     0  0
  2 15  2  0     0  0
  3 16  1  0     0  0
  4 17  1  0     0  0
  5  6  1  0     0  0
  5  7  1  0     0  0
  6  8  1  0     0  0
  6 10  2  0     0  0
  7  9  2  0     0  0
  7 19  1  0     0  0
  8  9  1  0     0  0
  8 11  2  0     0  0
  9 18  1  0     0  0
 10 12  1  0     0  0
 11 13  1  0     0  0
 12 13  2  0     0  0
 14 17  1  0     0  0
 14 18  1  0     0  0
 15 16  1  0     0  0
 15 20  1  0     0  0
 16 18  2  0     0  0
 17 20  2  0     0  0
 19 21  1  0     0  0
 19 22  1  0     0  0
M  END
> <standard_type>
pIC50

> <# Confs.>
12

> <canonical_smiles>
CC(C)C1=C(C(C(C(O)=C2)=O)=C(O)C2=O)C3=CC=CC=C3N1

> <standard_relation>
=

> <predicted_activity_value>
5.366531544420414

> <actual_activity_value>
5.327902142064283

> <Compound>
30

> <publication_ID>
nan

> <standard_units>
nM

> hash
7442244374319133704

$$$$
30_
XXILIB    08252103423D 0   0.00000     0.00000

 22 24  0     1  0            999 V2000
    0.5322    2.0586   -2.3118 O   0  0  0  0  0  2           0  0  0
   -1.1603   -1.8882   -5.4500 O   0  0  0  0  0  2           0  0  0
   -1.8051   -2.0726   -2.7891 O   0  0  0  0  0  2           0  0  0
    1.2750    2.1218   -4.9198 O   0  0  0  0  0  2           0  0  0
   -0.7019    0.0000    1.1844 N   0  0  0  0  0  3           0  0  0
   -2.0551    0.0292    0.9571 C   0  0  0  0  0  4           0  0  0
    0.0000    0.0000    0.0000 C   0  0  0  0  0  4           0  0  0
   -2.2415    0.0222   -0.4254 C   0  0  0  0  0  4           0  0  0
   -0.9376   -0.0017   -1.0262 C   0  0  0  0  0  4           0  0  0
   -3.1153    0.0555    1.8709 C   0  0  0  0  0  4           0  0  0
   -3.5680    0.0230   -0.9142 C   0  0  0  0  0  4           0  0  0
   -4.4141    0.0698    1.3589 C   0  0  0  0  0  4           0  0  0
   -4.6397    0.0509   -0.0138 C   0  0  0  0  0  4           0  0  0
    0.1627    1.1110   -3.0021 C   0  0  0  0  0  4           0  0  0
   -0.7526   -1.0008   -4.7069 C   0  0  0  0  0  4           0  0  0
   -1.0673   -0.9988   -3.2566 C   0  0  0  0  0  4           0  0  0
    0.5040    1.0808   -4.4444 C   0  0  0  0  0  4           0  0  0
   -0.6441   -0.0218   -2.4312 C   0  0  0  0  0  4           0  0  0
    1.4959    0.0000   -0.0000 C   0  0  2  0  0  4           0  0  0
    0.0732    0.0958   -5.2342 C   0  0  0  0  0  4           0  0  0
    2.0430   -1.2367    0.7140 C   0  0  0  0  0  4           0  0  0
    2.0449    1.2771    0.6374 C   0  0  0  0  0  4           0  0  0
  1 14  2  0     0  0
  2 15  2  0     0  0
  3 16  1  0     0  0
  4 17  1  0     0  0
  5  6  1  0     0  0
  5  7  1  0     0  0
  6  8  1  0     0  0
  6 10  2  0     0  0
  7  9  2  0     0  0
  7 19  1  0     0  0
  8  9  1  0     0  0
  8 11  2  0     0  0
  9 18  1  0     0  0
 10 12  1  0     0  0
 11 13  1  0     0  0
 12 13  2  0     0  0
 14 17  1  0     0  0
 14 18  1  0     0  0
 15 16  1  0     0  0
 15 20  1  0     0  0
 16 18  2  0     0  0
 17 20  2  0     0  0
 19 21  1  0     0  0
 19 22  1  0     0  0
M  END
> <standard_type>
pIC50

> <# Confs.>
12

> <canonical_smiles>
CC(C)C1=C(C(C(C(O)=C2)=O)=C(O)C2=O)C3=CC=CC=C3N1

> <standard_relation>
=

> <predicted_activity_value>
5.366531544420414

> <actual_activity_value>
5.327902142064283

> <Compound>
30

> <publication_ID>
nan

> <standard_units>
nM

> hash
7442244374319133704

$$$$
30_
XXILIB    08252103423D 0   0.00000     0.00000

 22 24  0     1  0            999 V2000
   -0.6400    2.3676   -2.5611 O   0  0  0  0  0  2           0  0  0
   -0.1201   -2.2047   -5.2282 O   0  0  0  0  0  2           0  0  0
   -0.6445   -2.4029   -2.5420 O   0  0  0  0  0  2           0  0  0
    0.0281    2.5141   -5.1859 O   0  0  0  0  0  2           0  0  0
   -0.7019    0.0000    1.1844 N   0  0  0  0  0  3           0  0  0
   -2.0551    0.0292    0.9571 C   0  0  0  0  0  4           0  0  0
    0.0000    0.0000    0.0000 C   0  0  0  0  0  4           0  0  0
   -2.2415    0.0222   -0.4254 C   0  0  0  0  0  4           0  0  0
   -0.9376   -0.0017   -1.0262 C   0  0  0  0  0  4           0  0  0
   -3.1153    0.0555    1.8709 C   0  0  0  0  0  4           0  0  0
   -3.5680    0.0230   -0.9142 C   0  0  0  0  0  4           0  0  0
   -4.4141    0.0698    1.3589 C   0  0  0  0  0  4           0  0  0
   -4.6397    0.0509   -0.0138 C   0  0  0  0  0  4           0  0  0
   -0.4844    1.2943   -3.1399 C   0  0  0  0  0  4           0  0  0
   -0.2141   -1.1595   -4.5922 C   0  0  0  0  0  4           0  0  0
   -0.5181   -1.1607   -3.1395 C   0  0  0  0  0  4           0  0  0
   -0.1435    1.2850   -4.5826 C   0  0  0  0  0  4           0  0  0
   -0.6441   -0.0218   -2.4312 C   0  0  0  0  0  4           0  0  0
    1.4959   -0.0000    0.0000 C   0  0  2  0  0  4           0  0  0
   -0.0209    0.1391   -5.2544 C   0  0  0  0  0  4           0  0  0
    2.0430    1.2367   -0.7140 C   0  0  0  0  0  4           0  0  0
    2.0449   -1.2771   -0.6374 C   0  0  0  0  0  4           0  0  0
  1 14  2  0     0  0
  2 15  2  0     0  0
  3 16  1  0     0  0
  4 17  1  0     0  0
  5  6  1  0     0  0
  5  7  1  0     0  0
  6  8  1  0     0  0
  6 10  2  0     0  0
  7  9  2  0     0  0
  7 19  1  0     0  0
  8  9  1  0     0  0
  8 11  2  0     0  0
  9 18  1  0     0  0
 10 12  1  0     0  0
 11 13  1  0     0  0
 12 13  2  0     0  0
 14 17  1  0     0  0
 14 18  1  0     0  0
 15 16  1  0     0  0
 15 20  1  0     0  0
 16 18  2  0     0  0
 17 20  2  0     0  0
 19 21  1  0     0  0
 19 22  1  0     0  0
M  END
> <standard_type>
pIC50

> <# Confs.>
12

> <canonical_smiles>
CC(C)C1=C(C(C(C(O)=C2)=O)=C(O)C2=O)C3=CC=CC=C3N1

> <standard_relation>
=

> <predicted_activity_value>
5.366531544420414

> <actual_activity_value>
5.327902142064283

> <Compound>
30

> <publication_ID>
nan

> <standard_units>
nM

> hash
7442244374319133704

$$$$
30_
XXILIB    08252103423D 0   0.00000     0.00000

 22 24  0     1  0            999 V2000
   -0.6992   -2.4126   -2.5059 O   0  0  0  0  0  2           0  0  0
   -0.0738    2.0806   -5.2810 O   0  0  0  0  0  2           0  0  0
   -0.5925    2.3554   -2.5993 O   0  0  0  0  0  2           0  0  0
   -0.0201   -2.6377   -5.1229 O   0  0  0  0  0  2           0  0  0
   -0.7019    0.0000    1.1844 N   0  0  0  0  0  3           0  0  0
   -2.0551    0.0292    0.9571 C   0  0  0  0  0  4           0  0  0
    0.0000    0.0000    0.0000 C   0  0  0  0  0  4           0  0  0
   -2.2415    0.0222   -0.4254 C   0  0  0  0  0  4           0  0  0
   -0.9376   -0.0017   -1.0262 C   0  0  0  0  0  4           0  0  0
   -3.1153    0.0555    1.8709 C   0  0  0  0  0  4           0  0  0
   -3.5680    0.0230   -0.9142 C   0  0  0  0  0  4           0  0  0
   -4.4141    0.0698    1.3589 C   0  0  0  0  0  4           0  0  0
   -4.6397    0.0509   -0.0138 C   0  0  0  0  0  4           0  0  0
   -0.5142   -1.3578   -3.1089 C   0  0  0  0  0  4           0  0  0
   -0.1894    1.0536   -4.6195 C   0  0  0  0  0  4           0  0  0
   -0.4931    1.0967   -3.1672 C   0  0  0  0  0  4           0  0  0
   -0.1679   -1.3910   -4.5499 C   0  0  0  0  0  4           0  0  0
   -0.6440   -0.0218   -2.4315 C   0  0  0  0  0  4           0  0  0
    1.4959   -0.0000    0.0000 C   0  0  2  0  0  4           0  0  0
   -0.0213   -0.2645   -5.2495 C   0  0  0  0  0  4           0  0  0
    2.0430    1.2367   -0.7140 C   0  0  0  0  0  4           0  0  0
    2.0449   -1.2771   -0.6374 C   0  0  0  0  0  4           0  0  0
  1 14  2  0     0  0
  2 15  2  0     0  0
  3 16  1  0     0  0
  4 17  1  0     0  0
  5  6  1  0     0  0
  5  7  1  0     0  0
  6  8  1  0     0  0
  6 10  2  0     0  0
  7  9  2  0     0  0
  7 19  1  0     0  0
  8  9  1  0     0  0
  8 11  2  0     0  0
  9 18  1  0     0  0
 10 12  1  0     0  0
 11 13  1  0     0  0
 12 13  2  0     0  0
 14 17  1  0     0  0
 14 18  1  0     0  0
 15 16  1  0     0  0
 15 20  1  0     0  0
 16 18  2  0     0  0
 17 20  2  0     0  0
 19 21  1  0     0  0
 19 22  1  0     0  0
M  END
> <standard_type>
pIC50

> <# Confs.>
12

> <canonical_smiles>
CC(C)C1=C(C(C(C(O)=C2)=O)=C(O)C2=O)C3=CC=CC=C3N1

> <standard_relation>
=

> <predicted_activity_value>
5.366531544420414

> <actual_activity_value>
5.327902142064283

> <Compound>
30

> <publication_ID>
nan

> <standard_units>
nM

> hash
7442244374319133704

$$$$
30_
XXILIB    08252103423D 0   0.00000     0.00000

 22 24  0     1  0            999 V2000
   -0.6992   -2.4126   -2.5059 O   0  0  0  0  0  2           0  0  0
   -0.0738    2.0806   -5.2810 O   0  0  0  0  0  2           0  0  0
   -0.5925    2.3554   -2.5993 O   0  0  0  0  0  2           0  0  0
   -0.0201   -2.6377   -5.1229 O   0  0  0  0  0  2           0  0  0
   -0.7019    0.0000    1.1844 N   0  0  0  0  0  3           0  0  0
   -2.0551    0.0292    0.9571 C   0  0  0  0  0  4           0  0  0
    0.0000    0.0000    0.0000 C   0  0  0  0  0  4           0  0  0
   -2.2415    0.0222   -0.4254 C   0  0  0  0  0  4           0  0  0
   -0.9376   -0.0017   -1.0262 C   0  0  0  0  0  4           0  0  0
   -3.1153    0.0555    1.8709 C   0  0  0  0  0  4           0  0  0
   -3.5680    0.0230   -0.9142 C   0  0  0  0  0  4           0  0  0
   -4.4141    0.0698    1.3589 C   0  0  0  0  0  4           0  0  0
   -4.6397    0.0509   -0.0138 C   0  0  0  0  0  4           0  0  0
   -0.5142   -1.3578   -3.1089 C   0  0  0  0  0  4           0  0  0
   -0.1894    1.0536   -4.6195 C   0  0  0  0  0  4           0  0  0
   -0.4931    1.0967   -3.1672 C   0  0  0  0  0  4           0  0  0
   -0.1679   -1.3910   -4.5499 C   0  0  0  0  0  4           0  0  0
   -0.6440   -0.0218   -2.4315 C   0  0  0  0  0  4           0  0  0
    1.4959    0.0000    0.0000 C   0  0  2  0  0  4           0  0  0
   -0.0213   -0.2645   -5.2495 C   0  0  0  0  0  4           0  0  0
    2.0430   -0.7140   -1.2367 C   0  0  0  0  0  4           0  0  0
    2.0449   -0.6374    1.2771 C   0  0  0  0  0  4           0  0  0
  1 14  2  0     0  0
  2 15  2  0     0  0
  3 16  1  0     0  0
  4 17  1  0     0  0
  5  6  1  0     0  0
  5  7  1  0     0  0
  6  8  1  0     0  0
  6 10  2  0     0  0
  7  9  2  0     0  0
  7 19  1  0     0  0
  8  9  1  0     0  0
  8 11  2  0     0  0
  9 18  1  0     0  0
 10 12  1  0     0  0
 11 13  1  0     0  0
 12 13  2  0     0  0
 14 17  1  0     0  0
 14 18  1  0     0  0
 15 16  1  0     0  0
 15 20  1  0     0  0
 16 18  2  0     0  0
 17 20  2  0     0  0
 19 21  1  0     0  0
 19 22  1  0     0  0
M  END
> <standard_type>
pIC50

> <# Confs.>
12

> <canonical_smiles>
CC(C)C1=C(C(C(C(O)=C2)=O)=C(O)C2=O)C3=CC=CC=C3N1

> <standard_relation>
=

> <predicted_activity_value>
5.366531544420414

> <actual_activity_value>
5.327902142064283

> <Compound>
30

> <publication_ID>
nan

> <standard_units>
nM

> hash
7442244374319133704

$$$$
30_
XXILIB    08252103423D 0   0.00000     0.00000

 22 24  0     1  0            999 V2000
   -0.6400    2.3676   -2.5611 O   0  0  0  0  0  2           0  0  0
   -0.1201   -2.2047   -5.2282 O   0  0  0  0  0  2           0  0  0
   -0.6445   -2.4029   -2.5420 O   0  0  0  0  0  2           0  0  0
    0.0281    2.5141   -5.1859 O   0  0  0  0  0  2           0  0  0
   -0.7019    0.0000    1.1844 N   0  0  0  0  0  3           0  0  0
   -2.0551    0.0292    0.9571 C   0  0  0  0  0  4           0  0  0
    0.0000    0.0000    0.0000 C   0  0  0  0  0  4           0  0  0
   -2.2415    0.0222   -0.4254 C   0  0  0  0  0  4           0  0  0
   -0.9376   -0.0017   -1.0262 C   0  0  0  0  0  4           0  0  0
   -3.1153    0.0555    1.8709 C   0  0  0  0  0  4           0  0  0
   -3.5680    0.0230   -0.9142 C   0  0  0  0  0  4           0  0  0
   -4.4141    0.0698    1.3589 C   0  0  0  0  0  4           0  0  0
   -4.6397    0.0509   -0.0138 C   0  0  0  0  0  4           0  0  0
   -0.4844    1.2943   -3.1399 C   0  0  0  0  0  4           0  0  0
   -0.2141   -1.1595   -4.5922 C   0  0  0  0  0  4           0  0  0
   -0.5181   -1.1607   -3.1395 C   0  0  0  0  0  4           0  0  0
   -0.1435    1.2850   -4.5826 C   0  0  0  0  0  4           0  0  0
   -0.6441   -0.0218   -2.4312 C   0  0  0  0  0  4           0  0  0
    1.4959   -0.0000   -0.0000 C   0  0  2  0  0  4           0  0  0
   -0.0209    0.1391   -5.2544 C   0  0  0  0  0  4           0  0  0
    2.0430    0.7140    1.2367 C   0  0  0  0  0  4           0  0  0
    2.0449    0.6374   -1.2771 C   0  0  0  0  0  4           0  0  0
  1 14  2  0     0  0
  2 15  2  0     0  0
  3 16  1  0     0  0
  4 17  1  0     0  0
  5  6  1  0     0  0
  5  7  1  0     0  0
  6  8  1  0     0  0
  6 10  2  0     0  0
  7  9  2  0     0  0
  7 19  1  0     0  0
  8  9  1  0     0  0
  8 11  2  0     0  0
  9 18  1  0     0  0
 10 12  1  0     0  0
 11 13  1  0     0  0
 12 13  2  0     0  0
 14 17  1  0     0  0
 14 18  1  0     0  0
 15 16  1  0     0  0
 15 20  1  0     0  0
 16 18  2  0     0  0
 17 20  2  0     0  0
 19 21  1  0     0  0
 19 22  1  0     0  0
M  END
> <standard_type>
pIC50

> <# Confs.>
12

> <canonical_smiles>
CC(C)C1=C(C(C(C(O)=C2)=O)=C(O)C2=O)C3=CC=CC=C3N1

> <standard_relation>
=

> <predicted_activity_value>
5.366531544420414

> <actual_activity_value>
5.327902142064283

> <Compound>
30

> <publication_ID>
nan

> <standard_units>
nM

> hash
7442244374319133704

$$$$
30_
XXILIB    08252103423D 0   0.00000     0.00000

 22 24  0     1  0            999 V2000
   -0.6400    2.3676   -2.5611 O   0  0  0  0  0  2           0  0  0
   -0.1201   -2.2047   -5.2282 O   0  0  0  0  0  2           0  0  0
   -0.6445   -2.4029   -2.5420 O   0  0  0  0  0  2           0  0  0
    0.0281    2.5141   -5.1859 O   0  0  0  0  0  2           0  0  0
   -0.7019    0.0000    1.1844 N   0  0  0  0  0  3           0  0  0
   -2.0551    0.0292    0.9571 C   0  0  0  0  0  4           0  0  0
    0.0000    0.0000    0.0000 C   0  0  0  0  0  4           0  0  0
   -2.2415    0.0222   -0.4254 C   0  0  0  0  0  4           0  0  0
   -0.9376   -0.0017   -1.0262 C   0  0  0  0  0  4           0  0  0
   -3.1153    0.0555    1.8709 C   0  0  0  0  0  4           0  0  0
   -3.5680    0.0230   -0.9142 C   0  0  0  0  0  4           0  0  0
   -4.4141    0.0698    1.3589 C   0  0  0  0  0  4           0  0  0
   -4.6397    0.0509   -0.0138 C   0  0  0  0  0  4           0  0  0
   -0.4844    1.2943   -3.1399 C   0  0  0  0  0  4           0  0  0
   -0.2141   -1.1595   -4.5922 C   0  0  0  0  0  4           0  0  0
   -0.5181   -1.1607   -3.1395 C   0  0  0  0  0  4           0  0  0
   -0.1435    1.2850   -4.5826 C   0  0  0  0  0  4           0  0  0
   -0.6441   -0.0218   -2.4312 C   0  0  0  0  0  4           0  0  0
    1.4959    0.0000    0.0000 C   0  0  2  0  0  4           0  0  0
   -0.0209    0.1391   -5.2544 C   0  0  0  0  0  4           0  0  0
    2.0430   -0.7140   -1.2367 C   0  0  0  0  0  4           0  0  0
    2.0449   -0.6374    1.2771 C   0  0  0  0  0  4           0  0  0
  1 14  2  0     0  0
  2 15  2  0     0  0
  3 16  1  0     0  0
  4 17  1  0     0  0
  5  6  1  0     0  0
  5  7  1  0     0  0
  6  8  1  0     0  0
  6 10  2  0     0  0
  7  9  2  0     0  0
  7 19  1  0     0  0
  8  9  1  0     0  0
  8 11  2  0     0  0
  9 18  1  0     0  0
 10 12  1  0     0  0
 11 13  1  0     0  0
 12 13  2  0     0  0
 14 17  1  0     0  0
 14 18  1  0     0  0
 15 16  1  0     0  0
 15 20  1  0     0  0
 16 18  2  0     0  0
 17 20  2  0     0  0
 19 21  1  0     0  0
 19 22  1  0     0  0
M  END
> <standard_type>
pIC50

> <# Confs.>
12

> <canonical_smiles>
CC(C)C1=C(C(C(C(O)=C2)=O)=C(O)C2=O)C3=CC=CC=C3N1

> <standard_relation>
=

> <predicted_activity_value>
5.366531544420414

> <actual_activity_value>
5.327902142064283

> <Compound>
30

> <publication_ID>
nan

> <standard_units>
nM

> hash
7442244374319133704

$$$$
30_
XXILIB    08252103423D 0   0.00000     0.00000

 22 24  0     1  0            999 V2000
   -0.6992   -2.4126   -2.5059 O   0  0  0  0  0  2           0  0  0
   -0.0738    2.0806   -5.2810 O   0  0  0  0  0  2           0  0  0
   -0.5925    2.3554   -2.5993 O   0  0  0  0  0  2           0  0  0
   -0.0201   -2.6377   -5.1229 O   0  0  0  0  0  2           0  0  0
   -0.7019    0.0000    1.1844 N   0  0  0  0  0  3           0  0  0
   -2.0551    0.0292    0.9571 C   0  0  0  0  0  4           0  0  0
    0.0000    0.0000    0.0000 C   0  0  0  0  0  4           0  0  0
   -2.2415    0.0222   -0.4254 C   0  0  0  0  0  4           0  0  0
   -0.9376   -0.0017   -1.0262 C   0  0  0  0  0  4           0  0  0
   -3.1153    0.0555    1.8709 C   0  0  0  0  0  4           0  0  0
   -3.5680    0.0230   -0.9142 C   0  0  0  0  0  4           0  0  0
   -4.4141    0.0698    1.3589 C   0  0  0  0  0  4           0  0  0
   -4.6397    0.0509   -0.0138 C   0  0  0  0  0  4           0  0  0
   -0.5142   -1.3578   -3.1089 C   0  0  0  0  0  4           0  0  0
   -0.1894    1.0536   -4.6195 C   0  0  0  0  0  4           0  0  0
   -0.4931    1.0967   -3.1672 C   0  0  0  0  0  4           0  0  0
   -0.1679   -1.3910   -4.5499 C   0  0  0  0  0  4           0  0  0
   -0.6440   -0.0218   -2.4315 C   0  0  0  0  0  4           0  0  0
    1.4959   -0.0000   -0.0000 C   0  0  2  0  0  4           0  0  0
   -0.0213   -0.2645   -5.2495 C   0  0  0  0  0  4           0  0  0
    2.0430    0.7140    1.2367 C   0  0  0  0  0  4           0  0  0
    2.0449    0.6374   -1.2771 C   0  0  0  0  0  4           0  0  0
  1 14  2  0     0  0
  2 15  2  0     0  0
  3 16  1  0     0  0
  4 17  1  0     0  0
  5  6  1  0     0  0
  5  7  1  0     0  0
  6  8  1  0     0  0
  6 10  2  0     0  0
  7  9  2  0     0  0
  7 19  1  0     0  0
  8  9  1  0     0  0
  8 11  2  0     0  0
  9 18  1  0     0  0
 10 12  1  0     0  0
 11 13  1  0     0  0
 12 13  2  0     0  0
 14 17  1  0     0  0
 14 18  1  0     0  0
 15 16  1  0     0  0
 15 20  1  0     0  0
 16 18  2  0     0  0
 17 20  2  0     0  0
 19 21  1  0     0  0
 19 22  1  0     0  0
M  END
> <standard_type>
pIC50

> <# Confs.>
12

> <canonical_smiles>
CC(C)C1=C(C(C(C(O)=C2)=O)=C(O)C2=O)C3=CC=CC=C3N1

> <standard_relation>
=

> <predicted_activity_value>
5.366531544420414

> <actual_activity_value>
5.327902142064283

> <Compound>
30

> <publication_ID>
nan

> <standard_units>
nM

> hash
7442244374319133704

$$$$
30_
XXILIB    08252103423D 0   0.00000     0.00000

 22 24  0     1  0            999 V2000
    0.4803   -2.1271   -2.2636 O   0  0  0  0  0  2           0  0  0
   -1.1202    1.7813   -5.4953 O   0  0  0  0  0  2           0  0  0
   -1.7600    2.0447   -2.8387 O   0  0  0  0  0  2           0  0  0
    1.2343   -2.2623   -4.8663 O   0  0  0  0  0  2           0  0  0
   -0.7019    0.0000    1.1844 N   0  0  0  0  0  3           0  0  0
   -2.0551    0.0292    0.9571 C   0  0  0  0  0  4           0  0  0
    0.0000    0.0000    0.0000 C   0  0  0  0  0  4           0  0  0
   -2.2415    0.0222   -0.4254 C   0  0  0  0  0  4           0  0  0
   -0.9376   -0.0017   -1.0262 C   0  0  0  0  0  4           0  0  0
   -3.1153    0.0555    1.8709 C   0  0  0  0  0  4           0  0  0
   -3.5680    0.0230   -0.9142 C   0  0  0  0  0  4           0  0  0
   -4.4141    0.0698    1.3589 C   0  0  0  0  0  4           0  0  0
   -4.6397    0.0509   -0.0138 C   0  0  0  0  0  4           0  0  0
    0.1369   -1.1858   -2.9754 C   0  0  0  0  0  4           0  0  0
   -0.7311    0.9042   -4.7306 C   0  0  0  0  0  4           0  0  0
   -1.0457    0.9441   -3.2805 C   0  0  0  0  0  4           0  0  0
    0.4835   -1.1952   -4.4167 C   0  0  0  0  0  4           0  0  0
   -0.6440   -0.0218   -2.4315 C   0  0  0  0  0  4           0  0  0
    1.4959   -0.0000    0.0000 C   0  0  2  0  0  4           0  0  0
    0.0734   -0.2207   -5.2303 C   0  0  0  0  0  4           0  0  0
    2.0430    0.7140   -1.2367 C   0  0  0  0  0  4           0  0  0
    2.0449   -1.4247    0.0865 C   0  0  0  0  0  4           0  0  0
  1 14  2  0     0  0
  2 15  2  0     0  0
  3 16  1  0     0  0
  4 17  1  0     0  0
  5  6  1  0     0  0
  5  7  1  0     0  0
  6  8  1  0     0  0
  6 10  2  0     0  0
  7  9  2  0     0  0
  7 19  1  0     0  0
  8  9  1  0     0  0
  8 11  2  0     0  0
  9 18  1  0     0  0
 10 12  1  0     0  0
 11 13  1  0     0  0
 12 13  2  0     0  0
 14 17  1  0     0  0
 14 18  1  0     0  0
 15 16  1  0     0  0
 15 20  1  0     0  0
 16 18  2  0     0  0
 17 20  2  0     0  0
 19 21  1  0     0  0
 19 22  1  0     0  0
M  END
> <standard_type>
pIC50

> <# Confs.>
12

> <canonical_smiles>
CC(C)C1=C(C(C(C(O)=C2)=O)=C(O)C2=O)C3=CC=CC=C3N1

> <standard_relation>
=

> <predicted_activity_value>
5.366531544420414

> <actual_activity_value>
5.327902142064283

> <Compound>
30

> <publication_ID>
nan

> <standard_units>
nM

> hash
7442244374319133704

$$$$
30_
XXILIB    08252103423D 0   0.00000     0.00000

 22 24  0     1  0            999 V2000
    0.5322    2.0586   -2.3118 O   0  0  0  0  0  2           0  0  0
   -1.1603   -1.8882   -5.4500 O   0  0  0  0  0  2           0  0  0
   -1.8051   -2.0726   -2.7891 O   0  0  0  0  0  2           0  0  0
    1.2750    2.1218   -4.9198 O   0  0  0  0  0  2           0  0  0
   -0.7019    0.0000    1.1844 N   0  0  0  0  0  3           0  0  0
   -2.0551    0.0292    0.9571 C   0  0  0  0  0  4           0  0  0
    0.0000    0.0000    0.0000 C   0  0  0  0  0  4           0  0  0
   -2.2415    0.0222   -0.4254 C   0  0  0  0  0  4           0  0  0
   -0.9376   -0.0017   -1.0262 C   0  0  0  0  0  4           0  0  0
   -3.1153    0.0555    1.8709 C   0  0  0  0  0  4           0  0  0
   -3.5680    0.0230   -0.9142 C   0  0  0  0  0  4           0  0  0
   -4.4141    0.0698    1.3589 C   0  0  0  0  0  4           0  0  0
   -4.6397    0.0509   -0.0138 C   0  0  0  0  0  4           0  0  0
    0.1627    1.1110   -3.0021 C   0  0  0  0  0  4           0  0  0
   -0.7526   -1.0008   -4.7069 C   0  0  0  0  0  4           0  0  0
   -1.0673   -0.9988   -3.2566 C   0  0  0  0  0  4           0  0  0
    0.5040    1.0808   -4.4444 C   0  0  0  0  0  4           0  0  0
   -0.6441   -0.0218   -2.4312 C   0  0  0  0  0  4           0  0  0
    1.4959   -0.0000    0.0000 C   0  0  2  0  0  4           0  0  0
    0.0732    0.0958   -5.2342 C   0  0  0  0  0  4           0  0  0
    2.0430    1.4280   -0.0000 C   0  0  0  0  0  4           0  0  0
    2.0449   -0.7873   -1.1905 C   0  0  0  0  0  4           0  0  0
  1 14  2  0     0  0
  2 15  2  0     0  0
  3 16  1  0     0  0
  4 17  1  0     0  0
  5  6  1  0     0  0
  5  7  1  0     0  0
  6  8  1  0     0  0
  6 10  2  0     0  0
  7  9  2  0     0  0
  7 19  1  0     0  0
  8  9  1  0     0  0
  8 11  2  0     0  0
  9 18  1  0     0  0
 10 12  1  0     0  0
 11 13  1  0     0  0
 12 13  2  0     0  0
 14 17  1  0     0  0
 14 18  1  0     0  0
 15 16  1  0     0  0
 15 20  1  0     0  0
 16 18  2  0     0  0
 17 20  2  0     0  0
 19 21  1  0     0  0
 19 22  1  0     0  0
M  END
> <standard_type>
pIC50

> <# Confs.>
12

> <canonical_smiles>
CC(C)C1=C(C(C(C(O)=C2)=O)=C(O)C2=O)C3=CC=CC=C3N1

> <standard_relation>
=

> <predicted_activity_value>
5.366531544420414

> <actual_activity_value>
5.327902142064283

> <Compound>
30

> <publication_ID>
nan

> <standard_units>
nM

> hash
7442244374319133704

$$$$
22_
XXILIB    08252103423D 0   0.00000     0.00000

 36 37  0     1  0            999 V2000
   -7.2893    0.5513    9.5484 O   0  0  0  0  0  2           0  0  0
  -10.5899   -0.0814    5.8125 O   0  0  0  0  0  2           0  0  0
   -4.0390    0.0000    5.1515 O   0  0  0  0  0  2           0  0  0
   -7.6525   -0.6602   11.4307 O   0  0  0  0  0  2           0  0  0
   -8.3332   -0.0278    4.0349 N   0  0  0  0  0  3           0  0  0
   -7.1374   -0.0107    3.4288 N   0  0  0  0  0  3           0  0  0
   -9.1571   -0.0785    7.6242 N   0  0  0  0  0  3           0  0  0
   -8.2798   -0.0410    5.4041 C   0  0  0  0  0  4           0  0  0
   -6.2643   -0.0106    4.4433 C   0  0  0  0  0  4           0  0  0
  -10.0250   -0.1046    8.7352 C   0  0  0  0  0  4           0  0  0
   -9.5089   -0.1108   10.0462 C   0  0  0  0  0  4           0  0  0
   -6.9300   -0.0249    5.6946 C   0  0  0  0  0  4           0  0  0
  -11.4168   -0.1426    8.5540 C   0  0  0  0  0  4           0  0  0
  -10.3824   -0.1489   11.1444 C   0  0  0  0  0  4           0  0  0
  -12.2776   -0.1830    9.6529 C   0  0  0  0  0  4           0  0  0
  -11.7616   -0.1858   10.9451 C   0  0  0  0  0  4           0  0  0
   -8.0559   -0.0322   10.3011 C   0  0  0  0  0  4           0  0  0
   -9.4445   -0.0681    6.2635 C   0  0  0  0  0  4           0  0  0
   -4.8281    0.0000    4.2057 C   0  0  0  0  0  4           0  0  0
   -4.2983   -0.0000    2.7869 C   0  0  0  0  0  4           0  0  0
   -2.7779    0.0000    2.7869 C   0  0  0  0  0  4           0  0  0
   -2.1526   -0.0000    1.3935 C   0  0  0  0  0  4           0  0  0
   -0.6253   -0.0000    1.3935 C   0  0  0  0  0  4           0  0  0
    0.0000    0.0000   -0.0000 C   0  0  0  0  0  4           0  0  0
    1.5276    0.0000    0.0000 C   0  0  0  0  0  4           0  0  0
    2.1529    0.0000   -1.3935 C   0  0  0  0  0  4           0  0  0
    3.6802   -0.0000   -1.3935 C   0  0  0  0  0  4           0  0  0
    4.3055    0.0000   -2.7869 C   0  0  0  0  0  4           0  0  0
    5.8328    0.0000   -2.7869 C   0  0  0  0  0  4           0  0  0
    6.4581    0.0000   -4.1804 C   0  0  0  0  0  4           0  0  0
    7.9855   -0.0000   -4.1804 C   0  0  0  0  0  4           0  0  0
    8.6107    0.0000   -5.5739 C   0  0  0  0  0  4           0  0  0
   10.1381   -0.0000   -5.5739 C   0  0  0  0  0  4           0  0  0
   10.7634    0.0000   -6.9673 C   0  0  0  0  0  4           0  0  0
   12.2907    0.0000   -6.9673 C   0  0  0  0  0  4           0  0  0
   12.8466    0.0000   -8.3819 C   0  0  0  0  0  4           0  0  0
  1 17  2  0     0  0
  2 18  2  0     0  0
  3 19  2  0     0  0
  4 17  1  0     0  0
  5  6  1  0     0  0
  5  8  1  0     0  0
  6  9  2  0     0  0
  7 10  1  0     0  0
  7 18  1  0     0  0
  8 12  2  0     0  0
  8 18  1  0     0  0
  9 12  1  0     0  0
  9 19  1  0     0  0
 10 11  2  0     0  0
 10 13  1  0     0  0
 11 14  1  0     0  0
 11 17  1  0     0  0
 13 15  2  0     0  0
 14 16  2  0     0  0
 15 16  1  0     0  0
 19 20  1  0     0  0
 20 21  1  0     0  0
 21 22  1  0     0  0
 22 23  1  0     0  0
 23 24  1  0     0  0
 24 25  1  0     0  0
 25 26  1  0     0  0
 26 27  1  0     0  0
 27 28  1  0     0  0
 28 29  1  0     0  0
 29 30  1  0     0  0
 30 31  1  0     0  0
 31 32  1  0     0  0
 32 33  1  0     0  0
 33 34  1  0     0  0
 34 35  1  0     0  0
 35 36  1  0     0  0
M  END
> <standard_type>
pIC50

> <# Confs.>
25

> <canonical_smiles>
O=C(CCCCCCCCCCCCCCCCC)C1=NNC(C(NC2=C(C(O)=O)C=CC=C2)=O)=C1

> <standard_relation>
=

> <predicted_activity_value>
6.443697499232712

> <actual_activity_value>
6.795880017344075

> <Compound>
22

> <publication_ID>
nan

> <standard_units>
nM

> hash
952520347405200910

$$$$
22_
XXILIB    08252103423D 0   0.00000     0.00000

 36 37  0     1  0            999 V2000
   -7.2893    0.5513    9.5484 O   0  0  0  0  0  2           0  0  0
  -10.5899   -0.0814    5.8125 O   0  0  0  0  0  2           0  0  0
   -4.0390    0.0000    5.1515 O   0  0  0  0  0  2           0  0  0
   -7.6525   -0.6602   11.4307 O   0  0  0  0  0  2           0  0  0
   -8.3332   -0.0278    4.0349 N   0  0  0  0  0  3           0  0  0
   -7.1374   -0.0107    3.4288 N   0  0  0  0  0  3           0  0  0
   -9.1571   -0.0785    7.6242 N   0  0  0  0  0  3           0  0  0
   -8.2798   -0.0410    5.4041 C   0  0  0  0  0  4           0  0  0
   -6.2643   -0.0106    4.4433 C   0  0  0  0  0  4           0  0  0
  -10.0250   -0.1046    8.7352 C   0  0  0  0  0  4           0  0  0
   -9.5089   -0.1108   10.0462 C   0  0  0  0  0  4           0  0  0
   -6.9300   -0.0249    5.6946 C   0  0  0  0  0  4           0  0  0
  -11.4168   -0.1426    8.5540 C   0  0  0  0  0  4           0  0  0
  -10.3824   -0.1489   11.1444 C   0  0  0  0  0  4           0  0  0
  -12.2776   -0.1830    9.6529 C   0  0  0  0  0  4           0  0  0
  -11.7616   -0.1858   10.9451 C   0  0  0  0  0  4           0  0  0
   -8.0559   -0.0322   10.3011 C   0  0  0  0  0  4           0  0  0
   -9.4445   -0.0681    6.2635 C   0  0  0  0  0  4           0  0  0
   -4.8281    0.0000    4.2057 C   0  0  0  0  0  4           0  0  0
   -4.2983   -0.0000    2.7869 C   0  0  0  0  0  4           0  0  0
   -2.7779    0.0000    2.7869 C   0  0  0  0  0  4           0  0  0
   -2.1526   -0.0000    1.3935 C   0  0  0  0  0  4           0  0  0
   -0.6253   -0.0000    1.3935 C   0  0  0  0  0  4           0  0  0
    0.0000    0.0000   -0.0000 C   0  0  0  0  0  4           0  0  0
    1.5276   -0.0000   -0.0000 C   0  0  0  0  0  4           0  0  0
    2.1529   -1.2068    0.6967 C   0  0  0  0  0  4           0  0  0
    3.6802   -1.2068    0.6967 C   0  0  0  0  0  4           0  0  0
    4.3055   -2.4136    1.3935 C   0  0  0  0  0  4           0  0  0
    5.8328   -2.4136    1.3935 C   0  0  0  0  0  4           0  0  0
    6.4581   -3.6203    2.0902 C   0  0  0  0  0  4           0  0  0
    7.9855   -3.6203    2.0902 C   0  0  0  0  0  4           0  0  0
    8.6107   -4.8271    2.7869 C   0  0  0  0  0  4           0  0  0
   10.1381   -4.8271    2.7869 C   0  0  0  0  0  4           0  0  0
   10.7634   -6.0339    3.4837 C   0  0  0  0  0  4           0  0  0
   12.2907   -6.0339    3.4837 C   0  0  0  0  0  4           0  0  0
   12.8466   -7.2589    4.1909 C   0  0  0  0  0  4           0  0  0
  1 17  2  0     0  0
  2 18  2  0     0  0
  3 19  2  0     0  0
  4 17  1  0     0  0
  5  6  1  0     0  0
  5  8  1  0     0  0
  6  9  2  0     0  0
  7 10  1  0     0  0
  7 18  1  0     0  0
  8 12  2  0     0  0
  8 18  1  0     0  0
  9 12  1  0     0  0
  9 19  1  0     0  0
 10 11  2  0     0  0
 10 13  1  0     0  0
 11 14  1  0     0  0
 11 17  1  0     0  0
 13 15  2  0     0  0
 14 16  2  0     0  0
 15 16  1  0     0  0
 19 20  1  0     0  0
 20 21  1  0     0  0
 21 22  1  0     0  0
 22 23  1  0     0  0
 23 24  1  0     0  0
 24 25  1  0     0  0
 25 26  1  0     0  0
 26 27  1  0     0  0
 27 28  1  0     0  0
 28 29  1  0     0  0
 29 30  1  0     0  0
 30 31  1  0     0  0
 31 32  1  0     0  0
 32 33  1  0     0  0
 33 34  1  0     0  0
 34 35  1  0     0  0
 35 36  1  0     0  0
M  END
> <standard_type>
pIC50

> <# Confs.>
25

> <canonical_smiles>
O=C(CCCCCCCCCCCCCCCCC)C1=NNC(C(NC2=C(C(O)=O)C=CC=C2)=O)=C1

> <standard_relation>
=

> <predicted_activity_value>
6.443697499232712

> <actual_activity_value>
6.795880017344075

> <Compound>
22

> <publication_ID>
nan

> <standard_units>
nM

> hash
952520347405200910

$$$$
22_
XXILIB    08252103423D 0   0.00000     0.00000

 36 37  0     1  0            999 V2000
   -7.2893    0.5513    9.5484 O   0  0  0  0  0  2           0  0  0
  -10.5899   -0.0814    5.8125 O   0  0  0  0  0  2           0  0  0
   -4.0390    0.0000    5.1515 O   0  0  0  0  0  2           0  0  0
   -7.6525   -0.6602   11.4307 O   0  0  0  0  0  2           0  0  0
   -8.3332   -0.0278    4.0349 N   0  0  0  0  0  3           0  0  0
   -7.1374   -0.0107    3.4288 N   0  0  0  0  0  3           0  0  0
   -9.1571   -0.0785    7.6242 N   0  0  0  0  0  3           0  0  0
   -8.2798   -0.0410    5.4041 C   0  0  0  0  0  4           0  0  0
   -6.2643   -0.0106    4.4433 C   0  0  0  0  0  4           0  0  0
  -10.0250   -0.1046    8.7352 C   0  0  0  0  0  4           0  0  0
   -9.5089   -0.1108   10.0462 C   0  0  0  0  0  4           0  0  0
   -6.9300   -0.0249    5.6946 C   0  0  0  0  0  4           0  0  0
  -11.4168   -0.1426    8.5540 C   0  0  0  0  0  4           0  0  0
  -10.3824   -0.1489   11.1444 C   0  0  0  0  0  4           0  0  0
  -12.2776   -0.1830    9.6529 C   0  0  0  0  0  4           0  0  0
  -11.7616   -0.1858   10.9451 C   0  0  0  0  0  4           0  0  0
   -8.0559   -0.0322   10.3011 C   0  0  0  0  0  4           0  0  0
   -9.4445   -0.0681    6.2635 C   0  0  0  0  0  4           0  0  0
   -4.8281    0.0000    4.2057 C   0  0  0  0  0  4           0  0  0
   -4.2983   -0.0000    2.7869 C   0  0  0  0  0  4           0  0  0
   -2.7779    0.0000    2.7869 C   0  0  0  0  0  4           0  0  0
   -2.1526   -0.0000    1.3935 C   0  0  0  0  0  4           0  0  0
   -0.6253   -0.0000    1.3935 C   0  0  0  0  0  4           0  0  0
    0.0000    0.0000   -0.0000 C   0  0  0  0  0  4           0  0  0
    1.5276   -0.0000   -0.0000 C   0  0  0  0  0  4           0  0  0
    2.1529    0.0000   -1.3935 C   0  0  0  0  0  4           0  0  0
    1.7732    1.2068   -2.2492 C   0  0  0  0  0  4           0  0  0
    2.3985    1.2068   -3.6427 C   0  0  0  0  0  4           0  0  0
    2.0188    2.4136   -4.4984 C   0  0  0  0  0  4           0  0  0
    2.6441    2.4136   -5.8919 C   0  0  0  0  0  4           0  0  0
    2.2644    3.6203   -6.7476 C   0  0  0  0  0  4           0  0  0
    2.8897    3.6203   -8.1410 C   0  0  0  0  0  4           0  0  0
    2.5100    4.8271   -8.9968 C   0  0  0  0  0  4           0  0  0
    3.1353    4.8271  -10.3902 C   0  0  0  0  0  4           0  0  0
    2.7557    6.0339  -11.2460 C   0  0  0  0  0  4           0  0  0
    3.4100    5.9716  -12.6164 C   0  0  0  0  0  4           0  0  0
  1 17  2  0     0  0
  2 18  2  0     0  0
  3 19  2  0     0  0
  4 17  1  0     0  0
  5  6  1  0     0  0
  5  8  1  0     0  0
  6  9  2  0     0  0
  7 10  1  0     0  0
  7 18  1  0     0  0
  8 12  2  0     0  0
  8 18  1  0     0  0
  9 12  1  0     0  0
  9 19  1  0     0  0
 10 11  2  0     0  0
 10 13  1  0     0  0
 11 14  1  0     0  0
 11 17  1  0     0  0
 13 15  2  0     0  0
 14 16  2  0     0  0
 15 16  1  0     0  0
 19 20  1  0     0  0
 20 21  1  0     0  0
 21 22  1  0     0  0
 22 23  1  0     0  0
 23 24  1  0     0  0
 24 25  1  0     0  0
 25 26  1  0     0  0
 26 27  1  0     0  0
 27 28  1  0     0  0
 28 29  1  0     0  0
 29 30  1  0     0  0
 30 31  1  0     0  0
 31 32  1  0     0  0
 32 33  1  0     0  0
 33 34  1  0     0  0
 34 35  1  0     0  0
 35 36  1  0     0  0
M  END
> <standard_type>
pIC50

> <# Confs.>
25

> <canonical_smiles>
O=C(CCCCCCCCCCCCCCCCC)C1=NNC(C(NC2=C(C(O)=O)C=CC=C2)=O)=C1

> <standard_relation>
=

> <predicted_activity_value>
6.443697499232712

> <actual_activity_value>
6.795880017344075

> <Compound>
22

> <publication_ID>
nan

> <standard_units>
nM

> hash
952520347405200910

$$$$
22_
XXILIB    08252103423D 0   0.00000     0.00000

 36 37  0     1  0            999 V2000
   -7.2893    0.5513    9.5484 O   0  0  0  0  0  2           0  0  0
  -10.5899   -0.0814    5.8125 O   0  0  0  0  0  2           0  0  0
   -4.0390    0.0000    5.1515 O   0  0  0  0  0  2           0  0  0
   -7.6525   -0.6602   11.4307 O   0  0  0  0  0  2           0  0  0
   -8.3332   -0.0278    4.0349 N   0  0  0  0  0  3           0  0  0
   -7.1374   -0.0107    3.4288 N   0  0  0  0  0  3           0  0  0
   -9.1571   -0.0785    7.6242 N   0  0  0  0  0  3           0  0  0
   -8.2798   -0.0410    5.4041 C   0  0  0  0  0  4           0  0  0
   -6.2643   -0.0106    4.4433 C   0  0  0  0  0  4           0  0  0
  -10.0250   -0.1046    8.7352 C   0  0  0  0  0  4           0  0  0
   -9.5089   -0.1108   10.0462 C   0  0  0  0  0  4           0  0  0
   -6.9300   -0.0249    5.6946 C   0  0  0  0  0  4           0  0  0
  -11.4168   -0.1426    8.5540 C   0  0  0  0  0  4           0  0  0
  -10.3824   -0.1489   11.1444 C   0  0  0  0  0  4           0  0  0
  -12.2776   -0.1830    9.6529 C   0  0  0  0  0  4           0  0  0
  -11.7616   -0.1858   10.9451 C   0  0  0  0  0  4           0  0  0
   -8.0559   -0.0322   10.3011 C   0  0  0  0  0  4           0  0  0
   -9.4445   -0.0681    6.2635 C   0  0  0  0  0  4           0  0  0
   -4.8281    0.0000    4.2057 C   0  0  0  0  0  4           0  0  0
   -4.2983   -0.0000    2.7869 C   0  0  0  0  0  4           0  0  0
   -2.7779    0.0000    2.7869 C   0  0  0  0  0  4           0  0  0
   -2.1526   -0.0000    1.3935 C   0  0  0  0  0  4           0  0  0
   -0.6253   -0.0000    1.3935 C   0  0  0  0  0  4           0  0  0
    0.0000    0.0000   -0.0000 C   0  0  0  0  0  4           0  0  0
    1.5276   -0.0000    0.0000 C   0  0  0  0  0  4           0  0  0
    2.1529    0.0000   -1.3935 C   0  0  0  0  0  4           0  0  0
    3.6802    0.0000   -1.3935 C   0  0  0  0  0  4           0  0  0
    4.3055   -1.2068   -0.6967 C   0  0  0  0  0  4           0  0  0
    5.8328   -1.2068   -0.6967 C   0  0  0  0  0  4           0  0  0
    6.4581   -2.4136   -0.0000 C   0  0  0  0  0  4           0  0  0
    7.9855   -2.4136   -0.0000 C   0  0  0  0  0  4           0  0  0
    8.6107   -3.6203    0.6967 C   0  0  0  0  0  4           0  0  0
   10.1381   -3.6203    0.6967 C   0  0  0  0  0  4           0  0  0
   10.7634   -4.8271    1.3935 C   0  0  0  0  0  4           0  0  0
   12.2907   -4.8271    1.3935 C   0  0  0  0  0  4           0  0  0
   12.8466   -6.0521    2.1007 C   0  0  0  0  0  4           0  0  0
  1 17  2  0     0  0
  2 18  2  0     0  0
  3 19  2  0     0  0
  4 17  1  0     0  0
  5  6  1  0     0  0
  5  8  1  0     0  0
  6  9  2  0     0  0
  7 10  1  0     0  0
  7 18  1  0     0  0
  8 12  2  0     0  0
  8 18  1  0     0  0
  9 12  1  0     0  0
  9 19  1  0     0  0
 10 11  2  0     0  0
 10 13  1  0     0  0
 11 14  1  0     0  0
 11 17  1  0     0  0
 13 15  2  0     0  0
 14 16  2  0     0  0
 15 16  1  0     0  0
 19 20  1  0     0  0
 20 21  1  0     0  0
 21 22  1  0     0  0
 22 23  1  0     0  0
 23 24  1  0     0  0
 24 25  1  0     0  0
 25 26  1  0     0  0
 26 27  1  0     0  0
 27 28  1  0     0  0
 28 29  1  0     0  0
 29 30  1  0     0  0
 30 31  1  0     0  0
 31 32  1  0     0  0
 32 33  1  0     0  0
 33 34  1  0     0  0
 34 35  1  0     0  0
 35 36  1  0     0  0
M  END
> <standard_type>
pIC50

> <# Confs.>
25

> <canonical_smiles>
O=C(CCCCCCCCCCCCCCCCC)C1=NNC(C(NC2=C(C(O)=O)C=CC=C2)=O)=C1

> <standard_relation>
=

> <predicted_activity_value>
6.443697499232712

> <actual_activity_value>
6.795880017344075

> <Compound>
22

> <publication_ID>
nan

> <standard_units>
nM

> hash
952520347405200910

$$$$
22_
XXILIB    08252103423D 0   0.00000     0.00000

 36 37  0     1  0            999 V2000
   -7.2893    0.5513    9.5484 O   0  0  0  0  0  2           0  0  0
  -10.5899   -0.0814    5.8125 O   0  0  0  0  0  2           0  0  0
   -4.0390    0.0000    5.1515 O   0  0  0  0  0  2           0  0  0
   -7.6525   -0.6602   11.4307 O   0  0  0  0  0  2           0  0  0
   -8.3332   -0.0278    4.0349 N   0  0  0  0  0  3           0  0  0
   -7.1374   -0.0107    3.4288 N   0  0  0  0  0  3           0  0  0
   -9.1571   -0.0785    7.6242 N   0  0  0  0  0  3           0  0  0
   -8.2798   -0.0410    5.4041 C   0  0  0  0  0  4           0  0  0
   -6.2643   -0.0106    4.4433 C   0  0  0  0  0  4           0  0  0
  -10.0250   -0.1046    8.7352 C   0  0  0  0  0  4           0  0  0
   -9.5089   -0.1108   10.0462 C   0  0  0  0  0  4           0  0  0
   -6.9300   -0.0249    5.6946 C   0  0  0  0  0  4           0  0  0
  -11.4168   -0.1426    8.5540 C   0  0  0  0  0  4           0  0  0
  -10.3824   -0.1489   11.1444 C   0  0  0  0  0  4           0  0  0
  -12.2776   -0.1830    9.6529 C   0  0  0  0  0  4           0  0  0
  -11.7616   -0.1858   10.9451 C   0  0  0  0  0  4           0  0  0
   -8.0559   -0.0322   10.3011 C   0  0  0  0  0  4           0  0  0
   -9.4445   -0.0681    6.2635 C   0  0  0  0  0  4           0  0  0
   -4.8281    0.0000    4.2057 C   0  0  0  0  0  4           0  0  0
   -4.2983   -0.0000    2.7869 C   0  0  0  0  0  4           0  0  0
   -2.7779    0.0000    2.7869 C   0  0  0  0  0  4           0  0  0
   -2.1526   -0.0000    1.3935 C   0  0  0  0  0  4           0  0  0
   -0.6253   -0.0000    1.3935 C   0  0  0  0  0  4           0  0  0
    0.0000    0.0000   -0.0000 C   0  0  0  0  0  4           0  0  0
    1.5276    0.0000   -0.0000 C   0  0  0  0  0  4           0  0  0
    2.1529    0.0000   -1.3935 C   0  0  0  0  0  4           0  0  0
    3.6802   -0.0000   -1.3935 C   0  0  0  0  0  4           0  0  0
    4.3055    0.0000   -2.7869 C   0  0  0  0  0  4           0  0  0
    3.9258    1.2068   -3.6427 C   0  0  0  0  0  4           0  0  0
    4.5511    1.2068   -5.0361 C   0  0  0  0  0  4           0  0  0
    4.1714    2.4136   -5.8919 C   0  0  0  0  0  4           0  0  0
    4.7967    2.4136   -7.2853 C   0  0  0  0  0  4           0  0  0
    4.4171    3.6203   -8.1410 C   0  0  0  0  0  4           0  0  0
    5.0423    3.6203   -9.5345 C   0  0  0  0  0  4           0  0  0
    4.6627    4.8271  -10.3902 C   0  0  0  0  0  4           0  0  0
    5.3170    4.7649  -11.7606 C   0  0  0  0  0  4           0  0  0
  1 17  2  0     0  0
  2 18  2  0     0  0
  3 19  2  0     0  0
  4 17  1  0     0  0
  5  6  1  0     0  0
  5  8  1  0     0  0
  6  9  2  0     0  0
  7 10  1  0     0  0
  7 18  1  0     0  0
  8 12  2  0     0  0
  8 18  1  0     0  0
  9 12  1  0     0  0
  9 19  1  0     0  0
 10 11  2  0     0  0
 10 13  1  0     0  0
 11 14  1  0     0  0
 11 17  1  0     0  0
 13 15  2  0     0  0
 14 16  2  0     0  0
 15 16  1  0     0  0
 19 20  1  0     0  0
 20 21  1  0     0  0
 21 22  1  0     0  0
 22 23  1  0     0  0
 23 24  1  0     0  0
 24 25  1  0     0  0
 25 26  1  0     0  0
 26 27  1  0     0  0
 27 28  1  0     0  0
 28 29  1  0     0  0
 29 30  1  0     0  0
 30 31  1  0     0  0
 31 32  1  0     0  0
 32 33  1  0     0  0
 33 34  1  0     0  0
 34 35  1  0     0  0
 35 36  1  0     0  0
M  END
> <standard_type>
pIC50

> <# Confs.>
25

> <canonical_smiles>
O=C(CCCCCCCCCCCCCCCCC)C1=NNC(C(NC2=C(C(O)=O)C=CC=C2)=O)=C1

> <standard_relation>
=

> <predicted_activity_value>
6.443697499232712

> <actual_activity_value>
6.795880017344075

> <Compound>
22

> <publication_ID>
nan

> <standard_units>
nM

> hash
952520347405200910

$$$$
22_
XXILIB    08252103423D 0   0.00000     0.00000

 36 37  0     1  0            999 V2000
   -7.2893    0.5513    9.5484 O   0  0  0  0  0  2           0  0  0
  -10.5899   -0.0814    5.8125 O   0  0  0  0  0  2           0  0  0
   -4.0390    0.0000    5.1515 O   0  0  0  0  0  2           0  0  0
   -7.6525   -0.6602   11.4307 O   0  0  0  0  0  2           0  0  0
   -8.3332   -0.0278    4.0349 N   0  0  0  0  0  3           0  0  0
   -7.1374   -0.0107    3.4288 N   0  0  0  0  0  3           0  0  0
   -9.1571   -0.0785    7.6242 N   0  0  0  0  0  3           0  0  0
   -8.2798   -0.0410    5.4041 C   0  0  0  0  0  4           0  0  0
   -6.2643   -0.0106    4.4433 C   0  0  0  0  0  4           0  0  0
  -10.0250   -0.1046    8.7352 C   0  0  0  0  0  4           0  0  0
   -9.5089   -0.1108   10.0462 C   0  0  0  0  0  4           0  0  0
   -6.9300   -0.0249    5.6946 C   0  0  0  0  0  4           0  0  0
  -11.4168   -0.1426    8.5540 C   0  0  0  0  0  4           0  0  0
  -10.3824   -0.1489   11.1444 C   0  0  0  0  0  4           0  0  0
  -12.2776   -0.1830    9.6529 C   0  0  0  0  0  4           0  0  0
  -11.7616   -0.1858   10.9451 C   0  0  0  0  0  4           0  0  0
   -8.0559   -0.0322   10.3011 C   0  0  0  0  0  4           0  0  0
   -9.4445   -0.0681    6.2635 C   0  0  0  0  0  4           0  0  0
   -4.8281    0.0000    4.2057 C   0  0  0  0  0  4           0  0  0
   -4.2983   -0.0000    2.7869 C   0  0  0  0  0  4           0  0  0
   -2.7779    0.0000    2.7869 C   0  0  0  0  0  4           0  0  0
   -2.1526   -0.0000    1.3935 C   0  0  0  0  0  4           0  0  0
   -0.6253   -0.0000    1.3935 C   0  0  0  0  0  4           0  0  0
    0.0000    0.0000   -0.0000 C   0  0  0  0  0  4           0  0  0
    1.5276    0.0000   -0.0000 C   0  0  0  0  0  4           0  0  0
    2.1529    0.0000   -1.3935 C   0  0  0  0  0  4           0  0  0
    3.6802   -0.0000   -1.3935 C   0  0  0  0  0  4           0  0  0
    4.3055    0.0000   -2.7869 C   0  0  0  0  0  4           0  0  0
    5.8328   -0.0000   -2.7869 C   0  0  0  0  0  4           0  0  0
    6.4581   -1.2068   -2.0902 C   0  0  0  0  0  4           0  0  0
    7.9855   -1.2068   -2.0902 C   0  0  0  0  0  4           0  0  0
    8.6107   -2.4136   -1.3935 C   0  0  0  0  0  4           0  0  0
   10.1381   -2.4136   -1.3935 C   0  0  0  0  0  4           0  0  0
   10.7634   -3.6203   -0.6967 C   0  0  0  0  0  4           0  0  0
   12.2907   -3.6203   -0.6967 C   0  0  0  0  0  4           0  0  0
   12.8466   -4.8453    0.0105 C   0  0  0  0  0  4           0  0  0
  1 17  2  0     0  0
  2 18  2  0     0  0
  3 19  2  0     0  0
  4 17  1  0     0  0
  5  6  1  0     0  0
  5  8  1  0     0  0
  6  9  2  0     0  0
  7 10  1  0     0  0
  7 18  1  0     0  0
  8 12  2  0     0  0
  8 18  1  0     0  0
  9 12  1  0     0  0
  9 19  1  0     0  0
 10 11  2  0     0  0
 10 13  1  0     0  0
 11 14  1  0     0  0
 11 17  1  0     0  0
 13 15  2  0     0  0
 14 16  2  0     0  0
 15 16  1  0     0  0
 19 20  1  0     0  0
 20 21  1  0     0  0
 21 22  1  0     0  0
 22 23  1  0     0  0
 23 24  1  0     0  0
 24 25  1  0     0  0
 25 26  1  0     0  0
 26 27  1  0     0  0
 27 28  1  0     0  0
 28 29  1  0     0  0
 29 30  1  0     0  0
 30 31  1  0     0  0
 31 32  1  0     0  0
 32 33  1  0     0  0
 33 34  1  0     0  0
 34 35  1  0     0  0
 35 36  1  0     0  0
M  END
> <standard_type>
pIC50

> <# Confs.>
25

> <canonical_smiles>
O=C(CCCCCCCCCCCCCCCCC)C1=NNC(C(NC2=C(C(O)=O)C=CC=C2)=O)=C1

> <standard_relation>
=

> <predicted_activity_value>
6.443697499232712

> <actual_activity_value>
6.795880017344075

> <Compound>
22

> <publication_ID>
nan

> <standard_units>
nM

> hash
952520347405200910

$$$$
22_
XXILIB    08252103423D 0   0.00000     0.00000

 36 37  0     1  0            999 V2000
   -7.2893    0.5513    9.5484 O   0  0  0  0  0  2           0  0  0
  -10.5899   -0.0814    5.8125 O   0  0  0  0  0  2           0  0  0
   -4.0390    0.0000    5.1515 O   0  0  0  0  0  2           0  0  0
   -7.6525   -0.6602   11.4307 O   0  0  0  0  0  2           0  0  0
   -8.3332   -0.0278    4.0349 N   0  0  0  0  0  3           0  0  0
   -7.1374   -0.0107    3.4288 N   0  0  0  0  0  3           0  0  0
   -9.1571   -0.0785    7.6242 N   0  0  0  0  0  3           0  0  0
   -8.2798   -0.0410    5.4041 C   0  0  0  0  0  4           0  0  0
   -6.2643   -0.0106    4.4433 C   0  0  0  0  0  4           0  0  0
  -10.0250   -0.1046    8.7352 C   0  0  0  0  0  4           0  0  0
   -9.5089   -0.1108   10.0462 C   0  0  0  0  0  4           0  0  0
   -6.9300   -0.0249    5.6946 C   0  0  0  0  0  4           0  0  0
  -11.4168   -0.1426    8.5540 C   0  0  0  0  0  4           0  0  0
  -10.3824   -0.1489   11.1444 C   0  0  0  0  0  4           0  0  0
  -12.2776   -0.1830    9.6529 C   0  0  0  0  0  4           0  0  0
  -11.7616   -0.1858   10.9451 C   0  0  0  0  0  4           0  0  0
   -8.0559   -0.0322   10.3011 C   0  0  0  0  0  4           0  0  0
   -9.4445   -0.0681    6.2635 C   0  0  0  0  0  4           0  0  0
   -4.8281    0.0000    4.2057 C   0  0  0  0  0  4           0  0  0
   -4.2983   -0.0000    2.7869 C   0  0  0  0  0  4           0  0  0
   -2.7779    0.0000    2.7869 C   0  0  0  0  0  4           0  0  0
   -2.1526   -0.0000    1.3935 C   0  0  0  0  0  4           0  0  0
   -0.6253   -0.0000    1.3935 C   0  0  0  0  0  4           0  0  0
    0.0000    0.0000   -0.0000 C   0  0  0  0  0  4           0  0  0
    1.5276   -0.0000   -0.0000 C   0  0  0  0  0  4           0  0  0
    2.1529    0.0000   -1.3935 C   0  0  0  0  0  4           0  0  0
    3.6802   -0.0000   -1.3935 C   0  0  0  0  0  4           0  0  0
    4.3055    0.0000   -2.7869 C   0  0  0  0  0  4           0  0  0
    5.8328    0.0000   -2.7869 C   0  0  0  0  0  4           0  0  0
    6.4581    0.0000   -4.1804 C   0  0  0  0  0  4           0  0  0
    6.0784    1.2068   -5.0361 C   0  0  0  0  0  4           0  0  0
    6.7037    1.2068   -6.4296 C   0  0  0  0  0  4           0  0  0
    6.3241    2.4136   -7.2853 C   0  0  0  0  0  4           0  0  0
    6.9493    2.4136   -8.6788 C   0  0  0  0  0  4           0  0  0
    6.5697    3.6203   -9.5345 C   0  0  0  0  0  4           0  0  0
    7.2240    3.5581  -10.9049 C   0  0  0  0  0  4           0  0  0
  1 17  2  0     0  0
  2 18  2  0     0  0
  3 19  2  0     0  0
  4 17  1  0     0  0
  5  6  1  0     0  0
  5  8  1  0     0  0
  6  9  2  0     0  0
  7 10  1  0     0  0
  7 18  1  0     0  0
  8 12  2  0     0  0
  8 18  1  0     0  0
  9 12  1  0     0  0
  9 19  1  0     0  0
 10 11  2  0     0  0
 10 13  1  0     0  0
 11 14  1  0     0  0
 11 17  1  0     0  0
 13 15  2  0     0  0
 14 16  2  0     0  0
 15 16  1  0     0  0
 19 20  1  0     0  0
 20 21  1  0     0  0
 21 22  1  0     0  0
 22 23  1  0     0  0
 23 24  1  0     0  0
 24 25  1  0     0  0
 25 26  1  0     0  0
 26 27  1  0     0  0
 27 28  1  0     0  0
 28 29  1  0     0  0
 29 30  1  0     0  0
 30 31  1  0     0  0
 31 32  1  0     0  0
 32 33  1  0     0  0
 33 34  1  0     0  0
 34 35  1  0     0  0
 35 36  1  0     0  0
M  END
> <standard_type>
pIC50

> <# Confs.>
25

> <canonical_smiles>
O=C(CCCCCCCCCCCCCCCCC)C1=NNC(C(NC2=C(C(O)=O)C=CC=C2)=O)=C1

> <standard_relation>
=

> <predicted_activity_value>
6.443697499232712

> <actual_activity_value>
6.795880017344075

> <Compound>
22

> <publication_ID>
nan

> <standard_units>
nM

> hash
952520347405200910

$$$$
22_
XXILIB    08252103423D 0   0.00000     0.00000

 36 37  0     1  0            999 V2000
   -7.2893    0.5513    9.5484 O   0  0  0  0  0  2           0  0  0
  -10.5899   -0.0814    5.8125 O   0  0  0  0  0  2           0  0  0
   -4.0390    0.0000    5.1515 O   0  0  0  0  0  2           0  0  0
   -7.6525   -0.6602   11.4307 O   0  0  0  0  0  2           0  0  0
   -8.3332   -0.0278    4.0349 N   0  0  0  0  0  3           0  0  0
   -7.1374   -0.0107    3.4288 N   0  0  0  0  0  3           0  0  0
   -9.1571   -0.0785    7.6242 N   0  0  0  0  0  3           0  0  0
   -8.2798   -0.0410    5.4041 C   0  0  0  0  0  4           0  0  0
   -6.2643   -0.0106    4.4433 C   0  0  0  0  0  4           0  0  0
  -10.0250   -0.1046    8.7352 C   0  0  0  0  0  4           0  0  0
   -9.5089   -0.1108   10.0462 C   0  0  0  0  0  4           0  0  0
   -6.9300   -0.0249    5.6946 C   0  0  0  0  0  4           0  0  0
  -11.4168   -0.1426    8.5540 C   0  0  0  0  0  4           0  0  0
  -10.3824   -0.1489   11.1444 C   0  0  0  0  0  4           0  0  0
  -12.2776   -0.1830    9.6529 C   0  0  0  0  0  4           0  0  0
  -11.7616   -0.1858   10.9451 C   0  0  0  0  0  4           0  0  0
   -8.0559   -0.0322   10.3011 C   0  0  0  0  0  4           0  0  0
   -9.4445   -0.0681    6.2635 C   0  0  0  0  0  4           0  0  0
   -4.8281    0.0000    4.2057 C   0  0  0  0  0  4           0  0  0
   -4.2983   -0.0000    2.7869 C   0  0  0  0  0  4           0  0  0
   -2.7779    0.0000    2.7869 C   0  0  0  0  0  4           0  0  0
   -2.1526   -0.0000    1.3935 C   0  0  0  0  0  4           0  0  0
   -0.6253   -0.0000    1.3935 C   0  0  0  0  0  4           0  0  0
    0.0000    0.0000   -0.0000 C   0  0  0  0  0  4           0  0  0
    1.5276    0.0000    0.0000 C   0  0  0  0  0  4           0  0  0
    2.1529    0.0000   -1.3935 C   0  0  0  0  0  4           0  0  0
    3.6802   -0.0000   -1.3935 C   0  0  0  0  0  4           0  0  0
    4.3055    0.0000   -2.7869 C   0  0  0  0  0  4           0  0  0
    5.8328    0.0000   -2.7869 C   0  0  0  0  0  4           0  0  0
    6.4581    0.0000   -4.1804 C   0  0  0  0  0  4           0  0  0
    7.9855   -0.0000   -4.1804 C   0  0  0  0  0  4           0  0  0
    8.6107   -1.2068   -3.4837 C   0  0  0  0  0  4           0  0  0
   10.1381   -1.2068   -3.4837 C   0  0  0  0  0  4           0  0  0
   10.7634   -2.4136   -2.7869 C   0  0  0  0  0  4           0  0  0
   12.2907   -2.4136   -2.7869 C   0  0  0  0  0  4           0  0  0
   12.8466   -3.6386   -2.0797 C   0  0  0  0  0  4           0  0  0
  1 17  2  0     0  0
  2 18  2  0     0  0
  3 19  2  0     0  0
  4 17  1  0     0  0
  5  6  1  0     0  0
  5  8  1  0     0  0
  6  9  2  0     0  0
  7 10  1  0     0  0
  7 18  1  0     0  0
  8 12  2  0     0  0
  8 18  1  0     0  0
  9 12  1  0     0  0
  9 19  1  0     0  0
 10 11  2  0     0  0
 10 13  1  0     0  0
 11 14  1  0     0  0
 11 17  1  0     0  0
 13 15  2  0     0  0
 14 16  2  0     0  0
 15 16  1  0     0  0
 19 20  1  0     0  0
 20 21  1  0     0  0
 21 22  1  0     0  0
 22 23  1  0     0  0
 23 24  1  0     0  0
 24 25  1  0     0  0
 25 26  1  0     0  0
 26 27  1  0     0  0
 27 28  1  0     0  0
 28 29  1  0     0  0
 29 30  1  0     0  0
 30 31  1  0     0  0
 31 32  1  0     0  0
 32 33  1  0     0  0
 33 34  1  0     0  0
 34 35  1  0     0  0
 35 36  1  0     0  0
M  END
> <standard_type>
pIC50

> <# Confs.>
25

> <canonical_smiles>
O=C(CCCCCCCCCCCCCCCCC)C1=NNC(C(NC2=C(C(O)=O)C=CC=C2)=O)=C1

> <standard_relation>
=

> <predicted_activity_value>
6.443697499232712

> <actual_activity_value>
6.795880017344075

> <Compound>
22

> <publication_ID>
nan

> <standard_units>
nM

> hash
952520347405200910

$$$$
22_
XXILIB    08252103423D 0   0.00000     0.00000

 36 37  0     1  0            999 V2000
   -7.2893    0.5513    9.5484 O   0  0  0  0  0  2           0  0  0
  -10.5899   -0.0814    5.8125 O   0  0  0  0  0  2           0  0  0
   -4.0390    0.0000    5.1515 O   0  0  0  0  0  2           0  0  0
   -7.6525   -0.6602   11.4307 O   0  0  0  0  0  2           0  0  0
   -8.3332   -0.0278    4.0349 N   0  0  0  0  0  3           0  0  0
   -7.1374   -0.0107    3.4288 N   0  0  0  0  0  3           0  0  0
   -9.1571   -0.0785    7.6242 N   0  0  0  0  0  3           0  0  0
   -8.2798   -0.0410    5.4041 C   0  0  0  0  0  4           0  0  0
   -6.2643   -0.0106    4.4433 C   0  0  0  0  0  4           0  0  0
  -10.0250   -0.1046    8.7352 C   0  0  0  0  0  4           0  0  0
   -9.5089   -0.1108   10.0462 C   0  0  0  0  0  4           0  0  0
   -6.9300   -0.0249    5.6946 C   0  0  0  0  0  4           0  0  0
  -11.4168   -0.1426    8.5540 C   0  0  0  0  0  4           0  0  0
  -10.3824   -0.1489   11.1444 C   0  0  0  0  0  4           0  0  0
  -12.2776   -0.1830    9.6529 C   0  0  0  0  0  4           0  0  0
  -11.7616   -0.1858   10.9451 C   0  0  0  0  0  4           0  0  0
   -8.0559   -0.0322   10.3011 C   0  0  0  0  0  4           0  0  0
   -9.4445   -0.0681    6.2635 C   0  0  0  0  0  4           0  0  0
   -4.8281    0.0000    4.2057 C   0  0  0  0  0  4           0  0  0
   -4.2983   -0.0000    2.7869 C   0  0  0  0  0  4           0  0  0
   -2.7779    0.0000    2.7869 C   0  0  0  0  0  4           0  0  0
   -2.1526   -0.0000    1.3935 C   0  0  0  0  0  4           0  0  0
   -0.6253   -0.0000    1.3935 C   0  0  0  0  0  4           0  0  0
    0.0000    0.0000   -0.0000 C   0  0  0  0  0  4           0  0  0
    1.5276   -0.0000    0.0000 C   0  0  0  0  0  4           0  0  0
    2.1529    1.2068    0.6967 C   0  0  0  0  0  4           0  0  0
    3.6802    1.2068    0.6967 C   0  0  0  0  0  4           0  0  0
    4.3055    2.4136    1.3935 C   0  0  0  0  0  4           0  0  0
    5.8328    2.4136    1.3935 C   0  0  0  0  0  4           0  0  0
    6.4581    3.6203    2.0902 C   0  0  0  0  0  4           0  0  0
    7.9855    3.6203    2.0902 C   0  0  0  0  0  4           0  0  0
    8.6107    4.8271    2.7869 C   0  0  0  0  0  4           0  0  0
   10.1381    4.8271    2.7869 C   0  0  0  0  0  4           0  0  0
   10.7634    6.0339    3.4837 C   0  0  0  0  0  4           0  0  0
   12.2907    6.0339    3.4837 C   0  0  0  0  0  4           0  0  0
   12.8466    7.2589    4.1909 C   0  0  0  0  0  4           0  0  0
  1 17  2  0     0  0
  2 18  2  0     0  0
  3 19  2  0     0  0
  4 17  1  0     0  0
  5  6  1  0     0  0
  5  8  1  0     0  0
  6  9  2  0     0  0
  7 10  1  0     0  0
  7 18  1  0     0  0
  8 12  2  0     0  0
  8 18  1  0     0  0
  9 12  1  0     0  0
  9 19  1  0     0  0
 10 11  2  0     0  0
 10 13  1  0     0  0
 11 14  1  0     0  0
 11 17  1  0     0  0
 13 15  2  0     0  0
 14 16  2  0     0  0
 15 16  1  0     0  0
 19 20  1  0     0  0
 20 21  1  0     0  0
 21 22  1  0     0  0
 22 23  1  0     0  0
 23 24  1  0     0  0
 24 25  1  0     0  0
 25 26  1  0     0  0
 26 27  1  0     0  0
 27 28  1  0     0  0
 28 29  1  0     0  0
 29 30  1  0     0  0
 30 31  1  0     0  0
 31 32  1  0     0  0
 32 33  1  0     0  0
 33 34  1  0     0  0
 34 35  1  0     0  0
 35 36  1  0     0  0
M  END
> <standard_type>
pIC50

> <# Confs.>
25

> <canonical_smiles>
O=C(CCCCCCCCCCCCCCCCC)C1=NNC(C(NC2=C(C(O)=O)C=CC=C2)=O)=C1

> <standard_relation>
=

> <predicted_activity_value>
6.443697499232712

> <actual_activity_value>
6.795880017344075

> <Compound>
22

> <publication_ID>
nan

> <standard_units>
nM

> hash
952520347405200910

$$$$
22_
XXILIB    08252103423D 0   0.00000     0.00000

 36 37  0     1  0            999 V2000
   -7.2893    0.5513    9.5484 O   0  0  0  0  0  2           0  0  0
  -10.5899   -0.0814    5.8125 O   0  0  0  0  0  2           0  0  0
   -4.0390    0.0000    5.1515 O   0  0  0  0  0  2           0  0  0
   -7.6525   -0.6602   11.4307 O   0  0  0  0  0  2           0  0  0
   -8.3332   -0.0278    4.0349 N   0  0  0  0  0  3           0  0  0
   -7.1374   -0.0107    3.4288 N   0  0  0  0  0  3           0  0  0
   -9.1571   -0.0785    7.6242 N   0  0  0  0  0  3           0  0  0
   -8.2798   -0.0410    5.4041 C   0  0  0  0  0  4           0  0  0
   -6.2643   -0.0106    4.4433 C   0  0  0  0  0  4           0  0  0
  -10.0250   -0.1046    8.7352 C   0  0  0  0  0  4           0  0  0
   -9.5089   -0.1108   10.0462 C   0  0  0  0  0  4           0  0  0
   -6.9300   -0.0249    5.6946 C   0  0  0  0  0  4           0  0  0
  -11.4168   -0.1426    8.5540 C   0  0  0  0  0  4           0  0  0
  -10.3824   -0.1489   11.1444 C   0  0  0  0  0  4           0  0  0
  -12.2776   -0.1830    9.6529 C   0  0  0  0  0  4           0  0  0
  -11.7616   -0.1858   10.9451 C   0  0  0  0  0  4           0  0  0
   -8.0559   -0.0322   10.3011 C   0  0  0  0  0  4           0  0  0
   -9.4445   -0.0681    6.2635 C   0  0  0  0  0  4           0  0  0
   -4.8281    0.0000    4.2057 C   0  0  0  0  0  4           0  0  0
   -4.2983   -0.0000    2.7869 C   0  0  0  0  0  4           0  0  0
   -2.7779    0.0000    2.7869 C   0  0  0  0  0  4           0  0  0
   -2.1526   -0.0000    1.3935 C   0  0  0  0  0  4           0  0  0
   -0.6253   -0.0000    1.3935 C   0  0  0  0  0  4           0  0  0
    0.0000    0.0000   -0.0000 C   0  0  0  0  0  4           0  0  0
    1.5276    0.0000    0.0000 C   0  0  0  0  0  4           0  0  0
    2.1529    0.0000   -1.3935 C   0  0  0  0  0  4           0  0  0
    3.6802   -0.0000   -1.3935 C   0  0  0  0  0  4           0  0  0
    4.3055    0.0000   -2.7869 C   0  0  0  0  0  4           0  0  0
    5.8328    0.0000   -2.7869 C   0  0  0  0  0  4           0  0  0
    6.4581    0.0000   -4.1804 C   0  0  0  0  0  4           0  0  0
    7.9855   -0.0000   -4.1804 C   0  0  0  0  0  4           0  0  0
    8.6107    0.0000   -5.5739 C   0  0  0  0  0  4           0  0  0
    8.2311    1.2068   -6.4296 C   0  0  0  0  0  4           0  0  0
    8.8564    1.2068   -7.8231 C   0  0  0  0  0  4           0  0  0
    8.4767    2.4136   -8.6788 C   0  0  0  0  0  4           0  0  0
    9.1310    2.3513  -10.0492 C   0  0  0  0  0  4           0  0  0
  1 17  2  0     0  0
  2 18  2  0     0  0
  3 19  2  0     0  0
  4 17  1  0     0  0
  5  6  1  0     0  0
  5  8  1  0     0  0
  6  9  2  0     0  0
  7 10  1  0     0  0
  7 18  1  0     0  0
  8 12  2  0     0  0
  8 18  1  0     0  0
  9 12  1  0     0  0
  9 19  1  0     0  0
 10 11  2  0     0  0
 10 13  1  0     0  0
 11 14  1  0     0  0
 11 17  1  0     0  0
 13 15  2  0     0  0
 14 16  2  0     0  0
 15 16  1  0     0  0
 19 20  1  0     0  0
 20 21  1  0     0  0
 21 22  1  0     0  0
 22 23  1  0     0  0
 23 24  1  0     0  0
 24 25  1  0     0  0
 25 26  1  0     0  0
 26 27  1  0     0  0
 27 28  1  0     0  0
 28 29  1  0     0  0
 29 30  1  0     0  0
 30 31  1  0     0  0
 31 32  1  0     0  0
 32 33  1  0     0  0
 33 34  1  0     0  0
 34 35  1  0     0  0
 35 36  1  0     0  0
M  END
> <standard_type>
pIC50

> <# Confs.>
25

> <canonical_smiles>
O=C(CCCCCCCCCCCCCCCCC)C1=NNC(C(NC2=C(C(O)=O)C=CC=C2)=O)=C1

> <standard_relation>
=

> <predicted_activity_value>
6.443697499232712

> <actual_activity_value>
6.795880017344075

> <Compound>
22

> <publication_ID>
nan

> <standard_units>
nM

> hash
952520347405200910

$$$$
22_
XXILIB    08252103423D 0   0.00000     0.00000

 36 37  0     1  0            999 V2000
   -7.2893    0.5513    9.5484 O   0  0  0  0  0  2           0  0  0
  -10.5899   -0.0814    5.8125 O   0  0  0  0  0  2           0  0  0
   -4.0390    0.0000    5.1515 O   0  0  0  0  0  2           0  0  0
   -7.6525   -0.6602   11.4307 O   0  0  0  0  0  2           0  0  0
   -8.3332   -0.0278    4.0349 N   0  0  0  0  0  3           0  0  0
   -7.1374   -0.0107    3.4288 N   0  0  0  0  0  3           0  0  0
   -9.1571   -0.0785    7.6242 N   0  0  0  0  0  3           0  0  0
   -8.2798   -0.0410    5.4041 C   0  0  0  0  0  4           0  0  0
   -6.2643   -0.0106    4.4433 C   0  0  0  0  0  4           0  0  0
  -10.0250   -0.1046    8.7352 C   0  0  0  0  0  4           0  0  0
   -9.5089   -0.1108   10.0462 C   0  0  0  0  0  4           0  0  0
   -6.9300   -0.0249    5.6946 C   0  0  0  0  0  4           0  0  0
  -11.4168   -0.1426    8.5540 C   0  0  0  0  0  4           0  0  0
  -10.3824   -0.1489   11.1444 C   0  0  0  0  0  4           0  0  0
  -12.2776   -0.1830    9.6529 C   0  0  0  0  0  4           0  0  0
  -11.7616   -0.1858   10.9451 C   0  0  0  0  0  4           0  0  0
   -8.0559   -0.0322   10.3011 C   0  0  0  0  0  4           0  0  0
   -9.4445   -0.0681    6.2635 C   0  0  0  0  0  4           0  0  0
   -4.8281    0.0000    4.2057 C   0  0  0  0  0  4           0  0  0
   -4.2983   -0.0000    2.7869 C   0  0  0  0  0  4           0  0  0
   -2.7779    0.0000    2.7869 C   0  0  0  0  0  4           0  0  0
   -2.1526   -0.0000    1.3935 C   0  0  0  0  0  4           0  0  0
   -0.6253   -0.0000    1.3935 C   0  0  0  0  0  4           0  0  0
    0.0000    0.0000   -0.0000 C   0  0  0  0  0  4           0  0  0
    1.5276    0.0000   -0.0000 C   0  0  0  0  0  4           0  0  0
    2.1529    0.0000   -1.3935 C   0  0  0  0  0  4           0  0  0
    1.7732   -1.2068   -2.2492 C   0  0  0  0  0  4           0  0  0
    2.3985   -1.2068   -3.6427 C   0  0  0  0  0  4           0  0  0
    2.0188   -2.4136   -4.4984 C   0  0  0  0  0  4           0  0  0
    2.6441   -2.4136   -5.8919 C   0  0  0  0  0  4           0  0  0
    2.2644   -3.6203   -6.7476 C   0  0  0  0  0  4           0  0  0
    2.8897   -3.6203   -8.1410 C   0  0  0  0  0  4           0  0  0
    2.5100   -4.8271   -8.9968 C   0  0  0  0  0  4           0  0  0
    3.1353   -4.8271  -10.3902 C   0  0  0  0  0  4           0  0  0
    2.7557   -6.0339  -11.2460 C   0  0  0  0  0  4           0  0  0
    3.4100   -5.9716  -12.6164 C   0  0  0  0  0  4           0  0  0
  1 17  2  0     0  0
  2 18  2  0     0  0
  3 19  2  0     0  0
  4 17  1  0     0  0
  5  6  1  0     0  0
  5  8  1  0     0  0
  6  9  2  0     0  0
  7 10  1  0     0  0
  7 18  1  0     0  0
  8 12  2  0     0  0
  8 18  1  0     0  0
  9 12  1  0     0  0
  9 19  1  0     0  0
 10 11  2  0     0  0
 10 13  1  0     0  0
 11 14  1  0     0  0
 11 17  1  0     0  0
 13 15  2  0     0  0
 14 16  2  0     0  0
 15 16  1  0     0  0
 19 20  1  0     0  0
 20 21  1  0     0  0
 21 22  1  0     0  0
 22 23  1  0     0  0
 23 24  1  0     0  0
 24 25  1  0     0  0
 25 26  1  0     0  0
 26 27  1  0     0  0
 27 28  1  0     0  0
 28 29  1  0     0  0
 29 30  1  0     0  0
 30 31  1  0     0  0
 31 32  1  0     0  0
 32 33  1  0     0  0
 33 34  1  0     0  0
 34 35  1  0     0  0
 35 36  1  0     0  0
M  END
> <standard_type>
pIC50

> <# Confs.>
25

> <canonical_smiles>
O=C(CCCCCCCCCCCCCCCCC)C1=NNC(C(NC2=C(C(O)=O)C=CC=C2)=O)=C1

> <standard_relation>
=

> <predicted_activity_value>
6.443697499232712

> <actual_activity_value>
6.795880017344075

> <Compound>
22

> <publication_ID>
nan

> <standard_units>
nM

> hash
952520347405200910

$$$$
22_
XXILIB    08252103423D 0   0.00000     0.00000

 36 37  0     1  0            999 V2000
   -7.2893    0.5513    9.5484 O   0  0  0  0  0  2           0  0  0
  -10.5899   -0.0814    5.8125 O   0  0  0  0  0  2           0  0  0
   -4.0390    0.0000    5.1515 O   0  0  0  0  0  2           0  0  0
   -7.6525   -0.6602   11.4307 O   0  0  0  0  0  2           0  0  0
   -8.3332   -0.0278    4.0349 N   0  0  0  0  0  3           0  0  0
   -7.1374   -0.0107    3.4288 N   0  0  0  0  0  3           0  0  0
   -9.1571   -0.0785    7.6242 N   0  0  0  0  0  3           0  0  0
   -8.2798   -0.0410    5.4041 C   0  0  0  0  0  4           0  0  0
   -6.2643   -0.0106    4.4433 C   0  0  0  0  0  4           0  0  0
  -10.0250   -0.1046    8.7352 C   0  0  0  0  0  4           0  0  0
   -9.5089   -0.1108   10.0462 C   0  0  0  0  0  4           0  0  0
   -6.9300   -0.0249    5.6946 C   0  0  0  0  0  4           0  0  0
  -11.4168   -0.1426    8.5540 C   0  0  0  0  0  4           0  0  0
  -10.3824   -0.1489   11.1444 C   0  0  0  0  0  4           0  0  0
  -12.2776   -0.1830    9.6529 C   0  0  0  0  0  4           0  0  0
  -11.7616   -0.1858   10.9451 C   0  0  0  0  0  4           0  0  0
   -8.0559   -0.0322   10.3011 C   0  0  0  0  0  4           0  0  0
   -9.4445   -0.0681    6.2635 C   0  0  0  0  0  4           0  0  0
   -4.8281    0.0000    4.2057 C   0  0  0  0  0  4           0  0  0
   -4.2983   -0.0000    2.7869 C   0  0  0  0  0  4           0  0  0
   -2.7779    0.0000    2.7869 C   0  0  0  0  0  4           0  0  0
   -2.1526   -0.0000    1.3935 C   0  0  0  0  0  4           0  0  0
   -0.6253   -0.0000    1.3935 C   0  0  0  0  0  4           0  0  0
    0.0000    0.0000   -0.0000 C   0  0  0  0  0  4           0  0  0
    1.5276   -0.0000   -0.0000 C   0  0  0  0  0  4           0  0  0
    2.1529    0.0000   -1.3935 C   0  0  0  0  0  4           0  0  0
    3.6802   -0.0000   -1.3935 C   0  0  0  0  0  4           0  0  0
    4.3055    1.2068   -0.6967 C   0  0  0  0  0  4           0  0  0
    5.8328    1.2068   -0.6967 C   0  0  0  0  0  4           0  0  0
    6.4581    2.4136    0.0000 C   0  0  0  0  0  4           0  0  0
    7.9855    2.4136   -0.0000 C   0  0  0  0  0  4           0  0  0
    8.6107    3.6203    0.6967 C   0  0  0  0  0  4           0  0  0
   10.1381    3.6203    0.6967 C   0  0  0  0  0  4           0  0  0
   10.7634    4.8271    1.3935 C   0  0  0  0  0  4           0  0  0
   12.2907    4.8271    1.3935 C   0  0  0  0  0  4           0  0  0
   12.8466    6.0521    2.1007 C   0  0  0  0  0  4           0  0  0
  1 17  2  0     0  0
  2 18  2  0     0  0
  3 19  2  0     0  0
  4 17  1  0     0  0
  5  6  1  0     0  0
  5  8  1  0     0  0
  6  9  2  0     0  0
  7 10  1  0     0  0
  7 18  1  0     0  0
  8 12  2  0     0  0
  8 18  1  0     0  0
  9 12  1  0     0  0
  9 19  1  0     0  0
 10 11  2  0     0  0
 10 13  1  0     0  0
 11 14  1  0     0  0
 11 17  1  0     0  0
 13 15  2  0     0  0
 14 16  2  0     0  0
 15 16  1  0     0  0
 19 20  1  0     0  0
 20 21  1  0     0  0
 21 22  1  0     0  0
 22 23  1  0     0  0
 23 24  1  0     0  0
 24 25  1  0     0  0
 25 26  1  0     0  0
 26 27  1  0     0  0
 27 28  1  0     0  0
 28 29  1  0     0  0
 29 30  1  0     0  0
 30 31  1  0     0  0
 31 32  1  0     0  0
 32 33  1  0     0  0
 33 34  1  0     0  0
 34 35  1  0     0  0
 35 36  1  0     0  0
M  END
> <standard_type>
pIC50

> <# Confs.>
25

> <canonical_smiles>
O=C(CCCCCCCCCCCCCCCCC)C1=NNC(C(NC2=C(C(O)=O)C=CC=C2)=O)=C1

> <standard_relation>
=

> <predicted_activity_value>
6.443697499232712

> <actual_activity_value>
6.795880017344075

> <Compound>
22

> <publication_ID>
nan

> <standard_units>
nM

> hash
952520347405200910

$$$$
22_
XXILIB    08252103423D 0   0.00000     0.00000

 36 37  0     1  0            999 V2000
   -7.2893    0.5513    9.5484 O   0  0  0  0  0  2           0  0  0
  -10.5899   -0.0814    5.8125 O   0  0  0  0  0  2           0  0  0
   -4.0390    0.0000    5.1515 O   0  0  0  0  0  2           0  0  0
   -7.6525   -0.6602   11.4307 O   0  0  0  0  0  2           0  0  0
   -8.3332   -0.0278    4.0349 N   0  0  0  0  0  3           0  0  0
   -7.1374   -0.0107    3.4288 N   0  0  0  0  0  3           0  0  0
   -9.1571   -0.0785    7.6242 N   0  0  0  0  0  3           0  0  0
   -8.2798   -0.0410    5.4041 C   0  0  0  0  0  4           0  0  0
   -6.2643   -0.0106    4.4433 C   0  0  0  0  0  4           0  0  0
  -10.0250   -0.1046    8.7352 C   0  0  0  0  0  4           0  0  0
   -9.5089   -0.1108   10.0462 C   0  0  0  0  0  4           0  0  0
   -6.9300   -0.0249    5.6946 C   0  0  0  0  0  4           0  0  0
  -11.4168   -0.1426    8.5540 C   0  0  0  0  0  4           0  0  0
  -10.3824   -0.1489   11.1444 C   0  0  0  0  0  4           0  0  0
  -12.2776   -0.1830    9.6529 C   0  0  0  0  0  4           0  0  0
  -11.7616   -0.1858   10.9451 C   0  0  0  0  0  4           0  0  0
   -8.0559   -0.0322   10.3011 C   0  0  0  0  0  4           0  0  0
   -9.4445   -0.0681    6.2635 C   0  0  0  0  0  4           0  0  0
   -4.8281    0.0000    4.2057 C   0  0  0  0  0  4           0  0  0
   -4.2983   -0.0000    2.7869 C   0  0  0  0  0  4           0  0  0
   -2.7779    0.0000    2.7869 C   0  0  0  0  0  4           0  0  0
   -2.1526   -0.0000    1.3935 C   0  0  0  0  0  4           0  0  0
   -0.6253   -0.0000    1.3935 C   0  0  0  0  0  4           0  0  0
    0.0000    0.0000   -0.0000 C   0  0  0  0  0  4           0  0  0
    1.5276   -0.0000    0.0000 C   0  0  0  0  0  4           0  0  0
    2.1529    0.0000   -1.3935 C   0  0  0  0  0  4           0  0  0
    3.6802   -0.0000   -1.3935 C   0  0  0  0  0  4           0  0  0
    4.3055   -0.0000   -2.7869 C   0  0  0  0  0  4           0  0  0
    3.9258   -1.2068   -3.6427 C   0  0  0  0  0  4           0  0  0
    4.5511   -1.2068   -5.0361 C   0  0  0  0  0  4           0  0  0
    4.1714   -2.4136   -5.8919 C   0  0  0  0  0  4           0  0  0
    4.7967   -2.4136   -7.2853 C   0  0  0  0  0  4           0  0  0
    4.4171   -3.6203   -8.1410 C   0  0  0  0  0  4           0  0  0
    5.0423   -3.6203   -9.5345 C   0  0  0  0  0  4           0  0  0
    4.6627   -4.8271  -10.3902 C   0  0  0  0  0  4           0  0  0
    5.3170   -4.7649  -11.7606 C   0  0  0  0  0  4           0  0  0
  1 17  2  0     0  0
  2 18  2  0     0  0
  3 19  2  0     0  0
  4 17  1  0     0  0
  5  6  1  0     0  0
  5  8  1  0     0  0
  6  9  2  0     0  0
  7 10  1  0     0  0
  7 18  1  0     0  0
  8 12  2  0     0  0
  8 18  1  0     0  0
  9 12  1  0     0  0
  9 19  1  0     0  0
 10 11  2  0     0  0
 10 13  1  0     0  0
 11 14  1  0     0  0
 11 17  1  0     0  0
 13 15  2  0     0  0
 14 16  2  0     0  0
 15 16  1  0     0  0
 19 20  1  0     0  0
 20 21  1  0     0  0
 21 22  1  0     0  0
 22 23  1  0     0  0
 23 24  1  0     0  0
 24 25  1  0     0  0
 25 26  1  0     0  0
 26 27  1  0     0  0
 27 28  1  0     0  0
 28 29  1  0     0  0
 29 30  1  0     0  0
 30 31  1  0     0  0
 31 32  1  0     0  0
 32 33  1  0     0  0
 33 34  1  0     0  0
 34 35  1  0     0  0
 35 36  1  0     0  0
M  END
> <standard_type>
pIC50

> <# Confs.>
25

> <canonical_smiles>
O=C(CCCCCCCCCCCCCCCCC)C1=NNC(C(NC2=C(C(O)=O)C=CC=C2)=O)=C1

> <standard_relation>
=

> <predicted_activity_value>
6.443697499232712

> <actual_activity_value>
6.795880017344075

> <Compound>
22

> <publication_ID>
nan

> <standard_units>
nM

> hash
952520347405200910

$$$$
22_
XXILIB    08252103423D 0   0.00000     0.00000

 36 37  0     1  0            999 V2000
   -7.2893    0.5513    9.5484 O   0  0  0  0  0  2           0  0  0
  -10.5899   -0.0814    5.8125 O   0  0  0  0  0  2           0  0  0
   -4.0390    0.0000    5.1515 O   0  0  0  0  0  2           0  0  0
   -7.6525   -0.6602   11.4307 O   0  0  0  0  0  2           0  0  0
   -8.3332   -0.0278    4.0349 N   0  0  0  0  0  3           0  0  0
   -7.1374   -0.0107    3.4288 N   0  0  0  0  0  3           0  0  0
   -9.1571   -0.0785    7.6242 N   0  0  0  0  0  3           0  0  0
   -8.2798   -0.0410    5.4041 C   0  0  0  0  0  4           0  0  0
   -6.2643   -0.0106    4.4433 C   0  0  0  0  0  4           0  0  0
  -10.0250   -0.1046    8.7352 C   0  0  0  0  0  4           0  0  0
   -9.5089   -0.1108   10.0462 C   0  0  0  0  0  4           0  0  0
   -6.9300   -0.0249    5.6946 C   0  0  0  0  0  4           0  0  0
  -11.4168   -0.1426    8.5540 C   0  0  0  0  0  4           0  0  0
  -10.3824   -0.1489   11.1444 C   0  0  0  0  0  4           0  0  0
  -12.2776   -0.1830    9.6529 C   0  0  0  0  0  4           0  0  0
  -11.7616   -0.1858   10.9451 C   0  0  0  0  0  4           0  0  0
   -8.0559   -0.0322   10.3011 C   0  0  0  0  0  4           0  0  0
   -9.4445   -0.0681    6.2635 C   0  0  0  0  0  4           0  0  0
   -4.8281    0.0000    4.2057 C   0  0  0  0  0  4           0  0  0
   -4.2983   -0.0000    2.7869 C   0  0  0  0  0  4           0  0  0
   -2.7779    0.0000    2.7869 C   0  0  0  0  0  4           0  0  0
   -2.1526   -0.0000    1.3935 C   0  0  0  0  0  4           0  0  0
   -0.6253   -0.0000    1.3935 C   0  0  0  0  0  4           0  0  0
    0.0000    0.0000   -0.0000 C   0  0  0  0  0  4           0  0  0
    1.5276    0.0000    0.0000 C   0  0  0  0  0  4           0  0  0
    2.1529    0.0000   -1.3935 C   0  0  0  0  0  4           0  0  0
    3.6802   -0.0000   -1.3935 C   0  0  0  0  0  4           0  0  0
    4.3055    0.0000   -2.7869 C   0  0  0  0  0  4           0  0  0
    5.8328    0.0000   -2.7869 C   0  0  0  0  0  4           0  0  0
    6.4581    0.0000   -4.1804 C   0  0  0  0  0  4           0  0  0
    7.9855   -0.0000   -4.1804 C   0  0  0  0  0  4           0  0  0
    8.6107    0.0000   -5.5739 C   0  0  0  0  0  4           0  0  0
   10.1381   -0.0000   -5.5739 C   0  0  0  0  0  4           0  0  0
   10.7634   -1.2068   -4.8771 C   0  0  0  0  0  4           0  0  0
   12.2907   -1.2068   -4.8771 C   0  0  0  0  0  4           0  0  0
   12.8466   -2.4318   -4.1699 C   0  0  0  0  0  4           0  0  0
  1 17  2  0     0  0
  2 18  2  0     0  0
  3 19  2  0     0  0
  4 17  1  0     0  0
  5  6  1  0     0  0
  5  8  1  0     0  0
  6  9  2  0     0  0
  7 10  1  0     0  0
  7 18  1  0     0  0
  8 12  2  0     0  0
  8 18  1  0     0  0
  9 12  1  0     0  0
  9 19  1  0     0  0
 10 11  2  0     0  0
 10 13  1  0     0  0
 11 14  1  0     0  0
 11 17  1  0     0  0
 13 15  2  0     0  0
 14 16  2  0     0  0
 15 16  1  0     0  0
 19 20  1  0     0  0
 20 21  1  0     0  0
 21 22  1  0     0  0
 22 23  1  0     0  0
 23 24  1  0     0  0
 24 25  1  0     0  0
 25 26  1  0     0  0
 26 27  1  0     0  0
 27 28  1  0     0  0
 28 29  1  0     0  0
 29 30  1  0     0  0
 30 31  1  0     0  0
 31 32  1  0     0  0
 32 33  1  0     0  0
 33 34  1  0     0  0
 34 35  1  0     0  0
 35 36  1  0     0  0
M  END
> <standard_type>
pIC50

> <# Confs.>
25

> <canonical_smiles>
O=C(CCCCCCCCCCCCCCCCC)C1=NNC(C(NC2=C(C(O)=O)C=CC=C2)=O)=C1

> <standard_relation>
=

> <predicted_activity_value>
6.443697499232712

> <actual_activity_value>
6.795880017344075

> <Compound>
22

> <publication_ID>
nan

> <standard_units>
nM

> hash
952520347405200910

$$$$
22_
XXILIB    08252103423D 0   0.00000     0.00000

 36 37  0     1  0            999 V2000
   -7.2893    0.5513    9.5484 O   0  0  0  0  0  2           0  0  0
  -10.5899   -0.0814    5.8125 O   0  0  0  0  0  2           0  0  0
   -4.0390    0.0000    5.1515 O   0  0  0  0  0  2           0  0  0
   -7.6525   -0.6602   11.4307 O   0  0  0  0  0  2           0  0  0
   -8.3332   -0.0278    4.0349 N   0  0  0  0  0  3           0  0  0
   -7.1374   -0.0107    3.4288 N   0  0  0  0  0  3           0  0  0
   -9.1571   -0.0785    7.6242 N   0  0  0  0  0  3           0  0  0
   -8.2798   -0.0410    5.4041 C   0  0  0  0  0  4           0  0  0
   -6.2643   -0.0106    4.4433 C   0  0  0  0  0  4           0  0  0
  -10.0250   -0.1046    8.7352 C   0  0  0  0  0  4           0  0  0
   -9.5089   -0.1108   10.0462 C   0  0  0  0  0  4           0  0  0
   -6.9300   -0.0249    5.6946 C   0  0  0  0  0  4           0  0  0
  -11.4168   -0.1426    8.5540 C   0  0  0  0  0  4           0  0  0
  -10.3824   -0.1489   11.1444 C   0  0  0  0  0  4           0  0  0
  -12.2776   -0.1830    9.6529 C   0  0  0  0  0  4           0  0  0
  -11.7616   -0.1858   10.9451 C   0  0  0  0  0  4           0  0  0
   -8.0559   -0.0322   10.3011 C   0  0  0  0  0  4           0  0  0
   -9.4445   -0.0681    6.2635 C   0  0  0  0  0  4           0  0  0
   -4.8281    0.0000    4.2057 C   0  0  0  0  0  4           0  0  0
   -4.2983   -0.0000    2.7869 C   0  0  0  0  0  4           0  0  0
   -2.7779    0.0000    2.7869 C   0  0  0  0  0  4           0  0  0
   -2.1526   -0.0000    1.3935 C   0  0  0  0  0  4           0  0  0
   -0.6253   -0.0000    1.3935 C   0  0  0  0  0  4           0  0  0
    0.0000    0.0000   -0.0000 C   0  0  0  0  0  4           0  0  0
    1.5276    0.0000    0.0000 C   0  0  0  0  0  4           0  0  0
    2.1529    0.0000   -1.3935 C   0  0  0  0  0  4           0  0  0
    3.6802    0.0000   -1.3935 C   0  0  0  0  0  4           0  0  0
    4.3055   -0.0000   -2.7869 C   0  0  0  0  0  4           0  0  0
    5.8328    0.0000   -2.7869 C   0  0  0  0  0  4           0  0  0
    6.4581    1.2068   -2.0902 C   0  0  0  0  0  4           0  0  0
    7.9855    1.2068   -2.0902 C   0  0  0  0  0  4           0  0  0
    8.6107    2.4136   -1.3935 C   0  0  0  0  0  4           0  0  0
   10.1381    2.4136   -1.3935 C   0  0  0  0  0  4           0  0  0
   10.7634    3.6203   -0.6967 C   0  0  0  0  0  4           0  0  0
   12.2907    3.6203   -0.6967 C   0  0  0  0  0  4           0  0  0
   12.8466    4.8453    0.0105 C   0  0  0  0  0  4           0  0  0
  1 17  2  0     0  0
  2 18  2  0     0  0
  3 19  2  0     0  0
  4 17  1  0     0  0
  5  6  1  0     0  0
  5  8  1  0     0  0
  6  9  2  0     0  0
  7 10  1  0     0  0
  7 18  1  0     0  0
  8 12  2  0     0  0
  8 18  1  0     0  0
  9 12  1  0     0  0
  9 19  1  0     0  0
 10 11  2  0     0  0
 10 13  1  0     0  0
 11 14  1  0     0  0
 11 17  1  0     0  0
 13 15  2  0     0  0
 14 16  2  0     0  0
 15 16  1  0     0  0
 19 20  1  0     0  0
 20 21  1  0     0  0
 21 22  1  0     0  0
 22 23  1  0     0  0
 23 24  1  0     0  0
 24 25  1  0     0  0
 25 26  1  0     0  0
 26 27  1  0     0  0
 27 28  1  0     0  0
 28 29  1  0     0  0
 29 30  1  0     0  0
 30 31  1  0     0  0
 31 32  1  0     0  0
 32 33  1  0     0  0
 33 34  1  0     0  0
 34 35  1  0     0  0
 35 36  1  0     0  0
M  END
> <standard_type>
pIC50

> <# Confs.>
25

> <canonical_smiles>
O=C(CCCCCCCCCCCCCCCCC)C1=NNC(C(NC2=C(C(O)=O)C=CC=C2)=O)=C1

> <standard_relation>
=

> <predicted_activity_value>
6.443697499232712

> <actual_activity_value>
6.795880017344075

> <Compound>
22

> <publication_ID>
nan

> <standard_units>
nM

> hash
952520347405200910

$$$$
22_
XXILIB    08252103423D 0   0.00000     0.00000

 36 37  0     1  0            999 V2000
   -7.2893    0.5513    9.5484 O   0  0  0  0  0  2           0  0  0
  -10.5899   -0.0814    5.8125 O   0  0  0  0  0  2           0  0  0
   -4.0390    0.0000    5.1515 O   0  0  0  0  0  2           0  0  0
   -7.6525   -0.6602   11.4307 O   0  0  0  0  0  2           0  0  0
   -8.3332   -0.0278    4.0349 N   0  0  0  0  0  3           0  0  0
   -7.1374   -0.0107    3.4288 N   0  0  0  0  0  3           0  0  0
   -9.1571   -0.0785    7.6242 N   0  0  0  0  0  3           0  0  0
   -8.2798   -0.0410    5.4041 C   0  0  0  0  0  4           0  0  0
   -6.2643   -0.0106    4.4433 C   0  0  0  0  0  4           0  0  0
  -10.0250   -0.1046    8.7352 C   0  0  0  0  0  4           0  0  0
   -9.5089   -0.1108   10.0462 C   0  0  0  0  0  4           0  0  0
   -6.9300   -0.0249    5.6946 C   0  0  0  0  0  4           0  0  0
  -11.4168   -0.1426    8.5540 C   0  0  0  0  0  4           0  0  0
  -10.3824   -0.1489   11.1444 C   0  0  0  0  0  4           0  0  0
  -12.2776   -0.1830    9.6529 C   0  0  0  0  0  4           0  0  0
  -11.7616   -0.1858   10.9451 C   0  0  0  0  0  4           0  0  0
   -8.0559   -0.0322   10.3011 C   0  0  0  0  0  4           0  0  0
   -9.4445   -0.0681    6.2635 C   0  0  0  0  0  4           0  0  0
   -4.8281    0.0000    4.2057 C   0  0  0  0  0  4           0  0  0
   -4.2983   -0.0000    2.7869 C   0  0  0  0  0  4           0  0  0
   -2.7779    0.0000    2.7869 C   0  0  0  0  0  4           0  0  0
   -2.1526   -0.0000    1.3935 C   0  0  0  0  0  4           0  0  0
   -0.6253   -0.0000    1.3935 C   0  0  0  0  0  4           0  0  0
    0.0000    0.0000   -0.0000 C   0  0  0  0  0  4           0  0  0
    1.5276    0.0000    0.0000 C   0  0  0  0  0  4           0  0  0
    2.1529    0.0000   -1.3935 C   0  0  0  0  0  4           0  0  0
    3.6802    0.0000   -1.3935 C   0  0  0  0  0  4           0  0  0
    4.3055    0.0000   -2.7869 C   0  0  0  0  0  4           0  0  0
    5.8328    0.0000   -2.7869 C   0  0  0  0  0  4           0  0  0
    6.4581    0.0000   -4.1804 C   0  0  0  0  0  4           0  0  0
    6.0784   -1.2068   -5.0361 C   0  0  0  0  0  4           0  0  0
    6.7037   -1.2068   -6.4296 C   0  0  0  0  0  4           0  0  0
    6.3241   -2.4136   -7.2853 C   0  0  0  0  0  4           0  0  0
    6.9493   -2.4136   -8.6788 C   0  0  0  0  0  4           0  0  0
    6.5697   -3.6203   -9.5345 C   0  0  0  0  0  4           0  0  0
    7.2240   -3.5581  -10.9049 C   0  0  0  0  0  4           0  0  0
  1 17  2  0     0  0
  2 18  2  0     0  0
  3 19  2  0     0  0
  4 17  1  0     0  0
  5  6  1  0     0  0
  5  8  1  0     0  0
  6  9  2  0     0  0
  7 10  1  0     0  0
  7 18  1  0     0  0
  8 12  2  0     0  0
  8 18  1  0     0  0
  9 12  1  0     0  0
  9 19  1  0     0  0
 10 11  2  0     0  0
 10 13  1  0     0  0
 11 14  1  0     0  0
 11 17  1  0     0  0
 13 15  2  0     0  0
 14 16  2  0     0  0
 15 16  1  0     0  0
 19 20  1  0     0  0
 20 21  1  0     0  0
 21 22  1  0     0  0
 22 23  1  0     0  0
 23 24  1  0     0  0
 24 25  1  0     0  0
 25 26  1  0     0  0
 26 27  1  0     0  0
 27 28  1  0     0  0
 28 29  1  0     0  0
 29 30  1  0     0  0
 30 31  1  0     0  0
 31 32  1  0     0  0
 32 33  1  0     0  0
 33 34  1  0     0  0
 34 35  1  0     0  0
 35 36  1  0     0  0
M  END
> <standard_type>
pIC50

> <# Confs.>
25

> <canonical_smiles>
O=C(CCCCCCCCCCCCCCCCC)C1=NNC(C(NC2=C(C(O)=O)C=CC=C2)=O)=C1

> <standard_relation>
=

> <predicted_activity_value>
6.443697499232712

> <actual_activity_value>
6.795880017344075

> <Compound>
22

> <publication_ID>
nan

> <standard_units>
nM

> hash
952520347405200910

$$$$
22_
XXILIB    08252103423D 0   0.00000     0.00000

 36 37  0     1  0            999 V2000
   -7.2893    0.5513    9.5484 O   0  0  0  0  0  2           0  0  0
  -10.5899   -0.0814    5.8125 O   0  0  0  0  0  2           0  0  0
   -4.0390    0.0000    5.1515 O   0  0  0  0  0  2           0  0  0
   -7.6525   -0.6602   11.4307 O   0  0  0  0  0  2           0  0  0
   -8.3332   -0.0278    4.0349 N   0  0  0  0  0  3           0  0  0
   -7.1374   -0.0107    3.4288 N   0  0  0  0  0  3           0  0  0
   -9.1571   -0.0785    7.6242 N   0  0  0  0  0  3           0  0  0
   -8.2798   -0.0410    5.4041 C   0  0  0  0  0  4           0  0  0
   -6.2643   -0.0106    4.4433 C   0  0  0  0  0  4           0  0  0
  -10.0250   -0.1046    8.7352 C   0  0  0  0  0  4           0  0  0
   -9.5089   -0.1108   10.0462 C   0  0  0  0  0  4           0  0  0
   -6.9300   -0.0249    5.6946 C   0  0  0  0  0  4           0  0  0
  -11.4168   -0.1426    8.5540 C   0  0  0  0  0  4           0  0  0
  -10.3824   -0.1489   11.1444 C   0  0  0  0  0  4           0  0  0
  -12.2776   -0.1830    9.6529 C   0  0  0  0  0  4           0  0  0
  -11.7616   -0.1858   10.9451 C   0  0  0  0  0  4           0  0  0
   -8.0559   -0.0322   10.3011 C   0  0  0  0  0  4           0  0  0
   -9.4445   -0.0681    6.2635 C   0  0  0  0  0  4           0  0  0
   -4.8281    0.0000    4.2057 C   0  0  0  0  0  4           0  0  0
   -4.2983   -0.0000    2.7869 C   0  0  0  0  0  4           0  0  0
   -2.7779    0.0000    2.7869 C   0  0  0  0  0  4           0  0  0
   -2.1526   -0.0000    1.3935 C   0  0  0  0  0  4           0  0  0
   -0.6253   -0.0000    1.3935 C   0  0  0  0  0  4           0  0  0
    0.0000    0.0000   -0.0000 C   0  0  0  0  0  4           0  0  0
    1.5276    0.0000    0.0000 C   0  0  0  0  0  4           0  0  0
    2.1529    0.0000   -1.3935 C   0  0  0  0  0  4           0  0  0
    3.6802   -0.0000   -1.3935 C   0  0  0  0  0  4           0  0  0
    4.3055    0.0000   -2.7869 C   0  0  0  0  0  4           0  0  0
    5.8328    0.0000   -2.7869 C   0  0  0  0  0  4           0  0  0
    6.4581    0.0000   -4.1804 C   0  0  0  0  0  4           0  0  0
    7.9855   -0.0000   -4.1804 C   0  0  0  0  0  4           0  0  0
    8.6107    1.2068   -3.4837 C   0  0  0  0  0  4           0  0  0
   10.1381    1.2068   -3.4837 C   0  0  0  0  0  4           0  0  0
   10.7634    2.4136   -2.7869 C   0  0  0  0  0  4           0  0  0
   12.2907    2.4136   -2.7869 C   0  0  0  0  0  4           0  0  0
   12.8466    3.6386   -2.0797 C   0  0  0  0  0  4           0  0  0
  1 17  2  0     0  0
  2 18  2  0     0  0
  3 19  2  0     0  0
  4 17  1  0     0  0
  5  6  1  0     0  0
  5  8  1  0     0  0
  6  9  2  0     0  0
  7 10  1  0     0  0
  7 18  1  0     0  0
  8 12  2  0     0  0
  8 18  1  0     0  0
  9 12  1  0     0  0
  9 19  1  0     0  0
 10 11  2  0     0  0
 10 13  1  0     0  0
 11 14  1  0     0  0
 11 17  1  0     0  0
 13 15  2  0     0  0
 14 16  2  0     0  0
 15 16  1  0     0  0
 19 20  1  0     0  0
 20 21  1  0     0  0
 21 22  1  0     0  0
 22 23  1  0     0  0
 23 24  1  0     0  0
 24 25  1  0     0  0
 25 26  1  0     0  0
 26 27  1  0     0  0
 27 28  1  0     0  0
 28 29  1  0     0  0
 29 30  1  0     0  0
 30 31  1  0     0  0
 31 32  1  0     0  0
 32 33  1  0     0  0
 33 34  1  0     0  0
 34 35  1  0     0  0
 35 36  1  0     0  0
M  END
> <standard_type>
pIC50

> <# Confs.>
25

> <canonical_smiles>
O=C(CCCCCCCCCCCCCCCCC)C1=NNC(C(NC2=C(C(O)=O)C=CC=C2)=O)=C1

> <standard_relation>
=

> <predicted_activity_value>
6.443697499232712

> <actual_activity_value>
6.795880017344075

> <Compound>
22

> <publication_ID>
nan

> <standard_units>
nM

> hash
952520347405200910

$$$$
22_
XXILIB    08252103423D 0   0.00000     0.00000

 36 37  0     1  0            999 V2000
   -7.2893    0.5513    9.5484 O   0  0  0  0  0  2           0  0  0
  -10.5899   -0.0814    5.8125 O   0  0  0  0  0  2           0  0  0
   -4.0390    0.0000    5.1515 O   0  0  0  0  0  2           0  0  0
   -7.6525   -0.6602   11.4307 O   0  0  0  0  0  2           0  0  0
   -8.3332   -0.0278    4.0349 N   0  0  0  0  0  3           0  0  0
   -7.1374   -0.0107    3.4288 N   0  0  0  0  0  3           0  0  0
   -9.1571   -0.0785    7.6242 N   0  0  0  0  0  3           0  0  0
   -8.2798   -0.0410    5.4041 C   0  0  0  0  0  4           0  0  0
   -6.2643   -0.0106    4.4433 C   0  0  0  0  0  4           0  0  0
  -10.0250   -0.1046    8.7352 C   0  0  0  0  0  4           0  0  0
   -9.5089   -0.1108   10.0462 C   0  0  0  0  0  4           0  0  0
   -6.9300   -0.0249    5.6946 C   0  0  0  0  0  4           0  0  0
  -11.4168   -0.1426    8.5540 C   0  0  0  0  0  4           0  0  0
  -10.3824   -0.1489   11.1444 C   0  0  0  0  0  4           0  0  0
  -12.2776   -0.1830    9.6529 C   0  0  0  0  0  4           0  0  0
  -11.7616   -0.1858   10.9451 C   0  0  0  0  0  4           0  0  0
   -8.0559   -0.0322   10.3011 C   0  0  0  0  0  4           0  0  0
   -9.4445   -0.0681    6.2635 C   0  0  0  0  0  4           0  0  0
   -4.8281    0.0000    4.2057 C   0  0  0  0  0  4           0  0  0
   -4.2983   -0.0000    2.7869 C   0  0  0  0  0  4           0  0  0
   -2.7779    0.0000    2.7869 C   0  0  0  0  0  4           0  0  0
   -2.1526   -0.0000    1.3935 C   0  0  0  0  0  4           0  0  0
   -0.6253   -0.0000    1.3935 C   0  0  0  0  0  4           0  0  0
    0.0000    0.0000   -0.0000 C   0  0  0  0  0  4           0  0  0
    1.5276    0.0000    0.0000 C   0  0  0  0  0  4           0  0  0
    2.1529    0.0000   -1.3935 C   0  0  0  0  0  4           0  0  0
    3.6802   -0.0000   -1.3935 C   0  0  0  0  0  4           0  0  0
    4.3055    0.0000   -2.7869 C   0  0  0  0  0  4           0  0  0
    5.8328    0.0000   -2.7869 C   0  0  0  0  0  4           0  0  0
    6.4581    0.0000   -4.1804 C   0  0  0  0  0  4           0  0  0
    7.9855   -0.0000   -4.1804 C   0  0  0  0  0  4           0  0  0
    8.6107    0.0000   -5.5739 C   0  0  0  0  0  4           0  0  0
    8.2311   -1.2068   -6.4296 C   0  0  0  0  0  4           0  0  0
    8.8564   -1.2068   -7.8231 C   0  0  0  0  0  4           0  0  0
    8.4767   -2.4136   -8.6788 C   0  0  0  0  0  4           0  0  0
    9.1310   -2.3513  -10.0492 C   0  0  0  0  0  4           0  0  0
  1 17  2  0     0  0
  2 18  2  0     0  0
  3 19  2  0     0  0
  4 17  1  0     0  0
  5  6  1  0     0  0
  5  8  1  0     0  0
  6  9  2  0     0  0
  7 10  1  0     0  0
  7 18  1  0     0  0
  8 12  2  0     0  0
  8 18  1  0     0  0
  9 12  1  0     0  0
  9 19  1  0     0  0
 10 11  2  0     0  0
 10 13  1  0     0  0
 11 14  1  0     0  0
 11 17  1  0     0  0
 13 15  2  0     0  0
 14 16  2  0     0  0
 15 16  1  0     0  0
 19 20  1  0     0  0
 20 21  1  0     0  0
 21 22  1  0     0  0
 22 23  1  0     0  0
 23 24  1  0     0  0
 24 25  1  0     0  0
 25 26  1  0     0  0
 26 27  1  0     0  0
 27 28  1  0     0  0
 28 29  1  0     0  0
 29 30  1  0     0  0
 30 31  1  0     0  0
 31 32  1  0     0  0
 32 33  1  0     0  0
 33 34  1  0     0  0
 34 35  1  0     0  0
 35 36  1  0     0  0
M  END
> <standard_type>
pIC50

> <# Confs.>
25

> <canonical_smiles>
O=C(CCCCCCCCCCCCCCCCC)C1=NNC(C(NC2=C(C(O)=O)C=CC=C2)=O)=C1

> <standard_relation>
=

> <predicted_activity_value>
6.443697499232712

> <actual_activity_value>
6.795880017344075

> <Compound>
22

> <publication_ID>
nan

> <standard_units>
nM

> hash
952520347405200910

$$$$
22_
XXILIB    08252103423D 0   0.00000     0.00000

 36 37  0     1  0            999 V2000
   -7.2893    0.5513    9.5484 O   0  0  0  0  0  2           0  0  0
  -10.5899   -0.0814    5.8125 O   0  0  0  0  0  2           0  0  0
   -4.0390    0.0000    5.1515 O   0  0  0  0  0  2           0  0  0
   -7.6525   -0.6602   11.4307 O   0  0  0  0  0  2           0  0  0
   -8.3332   -0.0278    4.0349 N   0  0  0  0  0  3           0  0  0
   -7.1374   -0.0107    3.4288 N   0  0  0  0  0  3           0  0  0
   -9.1571   -0.0785    7.6242 N   0  0  0  0  0  3           0  0  0
   -8.2798   -0.0410    5.4041 C   0  0  0  0  0  4           0  0  0
   -6.2643   -0.0106    4.4433 C   0  0  0  0  0  4           0  0  0
  -10.0250   -0.1046    8.7352 C   0  0  0  0  0  4           0  0  0
   -9.5089   -0.1108   10.0462 C   0  0  0  0  0  4           0  0  0
   -6.9300   -0.0249    5.6946 C   0  0  0  0  0  4           0  0  0
  -11.4168   -0.1426    8.5540 C   0  0  0  0  0  4           0  0  0
  -10.3824   -0.1489   11.1444 C   0  0  0  0  0  4           0  0  0
  -12.2776   -0.1830    9.6529 C   0  0  0  0  0  4           0  0  0
  -11.7616   -0.1858   10.9451 C   0  0  0  0  0  4           0  0  0
   -8.0559   -0.0322   10.3011 C   0  0  0  0  0  4           0  0  0
   -9.4445   -0.0681    6.2635 C   0  0  0  0  0  4           0  0  0
   -4.8281    0.0000    4.2057 C   0  0  0  0  0  4           0  0  0
   -4.2983   -0.0000    2.7869 C   0  0  0  0  0  4           0  0  0
   -2.7779    0.0000    2.7869 C   0  0  0  0  0  4           0  0  0
   -2.1526   -0.0000    1.3935 C   0  0  0  0  0  4           0  0  0
   -0.6253   -0.0000    1.3935 C   0  0  0  0  0  4           0  0  0
    0.0000    0.0000   -0.0000 C   0  0  0  0  0  4           0  0  0
    1.5276    0.0000    0.0000 C   0  0  0  0  0  4           0  0  0
    2.1529    0.0000   -1.3935 C   0  0  0  0  0  4           0  0  0
    3.6802   -0.0000   -1.3935 C   0  0  0  0  0  4           0  0  0
    4.3055    0.0000   -2.7869 C   0  0  0  0  0  4           0  0  0
    5.8328    0.0000   -2.7869 C   0  0  0  0  0  4           0  0  0
    6.4581    0.0000   -4.1804 C   0  0  0  0  0  4           0  0  0
    7.9855   -0.0000   -4.1804 C   0  0  0  0  0  4           0  0  0
    8.6107    0.0000   -5.5739 C   0  0  0  0  0  4           0  0  0
   10.1381    0.0000   -5.5739 C   0  0  0  0  0  4           0  0  0
   10.7634    1.2068   -4.8771 C   0  0  0  0  0  4           0  0  0
   12.2907    1.2068   -4.8771 C   0  0  0  0  0  4           0  0  0
   12.8466    2.4318   -4.1699 C   0  0  0  0  0  4           0  0  0
  1 17  2  0     0  0
  2 18  2  0     0  0
  3 19  2  0     0  0
  4 17  1  0     0  0
  5  6  1  0     0  0
  5  8  1  0     0  0
  6  9  2  0     0  0
  7 10  1  0     0  0
  7 18  1  0     0  0
  8 12  2  0     0  0
  8 18  1  0     0  0
  9 12  1  0     0  0
  9 19  1  0     0  0
 10 11  2  0     0  0
 10 13  1  0     0  0
 11 14  1  0     0  0
 11 17  1  0     0  0
 13 15  2  0     0  0
 14 16  2  0     0  0
 15 16  1  0     0  0
 19 20  1  0     0  0
 20 21  1  0     0  0
 21 22  1  0     0  0
 22 23  1  0     0  0
 23 24  1  0     0  0
 24 25  1  0     0  0
 25 26  1  0     0  0
 26 27  1  0     0  0
 27 28  1  0     0  0
 28 29  1  0     0  0
 29 30  1  0     0  0
 30 31  1  0     0  0
 31 32  1  0     0  0
 32 33  1  0     0  0
 33 34  1  0     0  0
 34 35  1  0     0  0
 35 36  1  0     0  0
M  END
> <standard_type>
pIC50

> <# Confs.>
25

> <canonical_smiles>
O=C(CCCCCCCCCCCCCCCCC)C1=NNC(C(NC2=C(C(O)=O)C=CC=C2)=O)=C1

> <standard_relation>
=

> <predicted_activity_value>
6.443697499232712

> <actual_activity_value>
6.795880017344075

> <Compound>
22

> <publication_ID>
nan

> <standard_units>
nM

> hash
952520347405200910

$$$$
22_
XXILIB    08252103423D 0   0.00000     0.00000

 36 37  0     1  0            999 V2000
   -7.8019    0.3029    9.6827 O   0  0  0  0  0  2           0  0  0
   -6.1361    4.8356    7.4757 O   0  0  0  0  0  2           0  0  0
   -5.0415   -1.0702    4.7771 O   0  0  0  0  0  2           0  0  0
   -6.4419    0.2777   11.4971 O   0  0  0  0  0  2           0  0  0
   -5.2272    3.3433    5.1947 N   0  0  0  0  0  3           0  0  0
   -4.8662    2.4351    4.2769 N   0  0  0  0  0  3           0  0  0
   -6.5517    2.8595    8.5971 N   0  0  0  0  0  3           0  0  0
   -5.6817    2.8143    6.3743 C   0  0  0  0  0  4           0  0  0
   -5.0916    1.2623    4.8812 C   0  0  0  0  0  4           0  0  0
   -7.0466    3.2839    9.8474 C   0  0  0  0  0  4           0  0  0
   -7.4189    2.3418   10.8266 C   0  0  0  0  0  4           0  0  0
   -5.5967    1.4482    6.1925 C   0  0  0  0  0  4           0  0  0
   -7.1931    4.6512   10.1312 C   0  0  0  0  0  4           0  0  0
   -7.9214    2.7759   12.0634 C   0  0  0  0  0  4           0  0  0
   -7.6964    5.0732   11.3636 C   0  0  0  0  0  4           0  0  0
   -8.0594    4.1377   12.3275 C   0  0  0  0  0  4           0  0  0
   -7.2509    0.8914   10.6017 C   0  0  0  0  0  4           0  0  0
   -6.1312    3.6048    7.5008 C   0  0  0  0  0  4           0  0  0
   -4.8281   -0.0000    4.2057 C   0  0  0  0  0  4           0  0  0
   -4.2983   -0.0000    2.7869 C   0  0  0  0  0  4           0  0  0
   -2.7779    0.0000    2.7869 C   0  0  0  0  0  4           0  0  0
   -2.1526   -0.0000    1.3935 C   0  0  0  0  0  4           0  0  0
   -0.6253    0.0000    1.3935 C   0  0  0  0  0  4           0  0  0
    0.0000    0.0000   -0.0000 C   0  0  0  0  0  4           0  0  0
    1.5276    0.0000    0.0000 C   0  0  0  0  0  4           0  0  0
    2.1529    0.0000   -1.3935 C   0  0  0  0  0  4           0  0  0
    3.6802   -0.0000   -1.3935 C   0  0  0  0  0  4           0  0  0
    4.3055    0.0000   -2.7869 C   0  0  0  0  0  4           0  0  0
    5.8328    0.0000   -2.7869 C   0  0  0  0  0  4           0  0  0
    6.4581    0.0000   -4.1804 C   0  0  0  0  0  4           0  0  0
    7.9855   -0.0000   -4.1804 C   0  0  0  0  0  4           0  0  0
    8.6107    0.0000   -5.5739 C   0  0  0  0  0  4           0  0  0
   10.1381   -0.0000   -5.5739 C   0  0  0  0  0  4           0  0  0
   10.7634    0.0000   -6.9673 C   0  0  0  0  0  4           0  0  0
   12.2907    0.0000   -6.9673 C   0  0  0  0  0  4           0  0  0
   12.8466    0.0000   -8.3819 C   0  0  0  0  0  4           0  0  0
  1 17  2  0     0  0
  2 18  2  0     0  0
  3 19  2  0     0  0
  4 17  1  0     0  0
  5  6  1  0     0  0
  5  8  1  0     0  0
  6  9  2  0     0  0
  7 10  1  0     0  0
  7 18  1  0     0  0
  8 12  2  0     0  0
  8 18  1  0     0  0
  9 12  1  0     0  0
  9 19  1  0     0  0
 10 11  2  0     0  0
 10 13  1  0     0  0
 11 14  1  0     0  0
 11 17  1  0     0  0
 13 15  2  0     0  0
 14 16  2  0     0  0
 15 16  1  0     0  0
 19 20  1  0     0  0
 20 21  1  0     0  0
 21 22  1  0     0  0
 22 23  1  0     0  0
 23 24  1  0     0  0
 24 25  1  0     0  0
 25 26  1  0     0  0
 26 27  1  0     0  0
 27 28  1  0     0  0
 28 29  1  0     0  0
 29 30  1  0     0  0
 30 31  1  0     0  0
 31 32  1  0     0  0
 32 33  1  0     0  0
 33 34  1  0     0  0
 34 35  1  0     0  0
 35 36  1  0     0  0
M  END
> <standard_type>
pIC50

> <# Confs.>
25

> <canonical_smiles>
O=C(CCCCCCCCCCCCCCCCC)C1=NNC(C(NC2=C(C(O)=O)C=CC=C2)=O)=C1

> <standard_relation>
=

> <predicted_activity_value>
6.443697499232712

> <actual_activity_value>
6.795880017344075

> <Compound>
22

> <publication_ID>
nan

> <standard_units>
nM

> hash
952520347405200910

$$$$
22_
XXILIB    08252103423D 0   0.00000     0.00000

 36 37  0     1  0            999 V2000
   -6.1721   -0.3029   10.2913 O   0  0  0  0  0  2           0  0  0
   -5.9836   -4.8356    7.5326 O   0  0  0  0  0  2           0  0  0
   -5.0415    1.0702    4.7771 O   0  0  0  0  0  2           0  0  0
   -8.3885   -0.2777   10.7702 O   0  0  0  0  0  2           0  0  0
   -5.1750   -3.3433    5.2142 N   0  0  0  0  0  3           0  0  0
   -4.8461   -2.4351    4.2844 N   0  0  0  0  0  3           0  0  0
   -6.4047   -2.8595    8.6520 N   0  0  0  0  0  3           0  0  0
   -5.6049   -2.8143    6.4030 C   0  0  0  0  0  4           0  0  0
   -5.0719   -1.2623    4.8886 C   0  0  0  0  0  4           0  0  0
   -6.8505   -3.2839    9.9206 C   0  0  0  0  0  4           0  0  0
   -7.2112   -2.3418   10.9042 C   0  0  0  0  0  4           0  0  0
   -5.5499   -1.4482    6.2100 C   0  0  0  0  0  4           0  0  0
   -6.9259   -4.6512   10.2310 C   0  0  0  0  0  4           0  0  0
   -7.6423   -2.7759   12.1676 C   0  0  0  0  0  4           0  0  0
   -7.3536   -5.0732   11.4916 C   0  0  0  0  0  4           0  0  0
   -7.7112   -4.1377   12.4576 C   0  0  0  0  0  4           0  0  0
   -7.1906   -0.8914   10.6242 C   0  0  0  0  0  4           0  0  0
   -6.0037   -3.6048    7.5484 C   0  0  0  0  0  4           0  0  0
   -4.8281   -0.0000    4.2057 C   0  0  0  0  0  4           0  0  0
   -4.2983   -0.0000    2.7869 C   0  0  0  0  0  4           0  0  0
   -2.7779   -0.0000    2.7869 C   0  0  0  0  0  4           0  0  0
   -2.1526    0.0000    1.3935 C   0  0  0  0  0  4           0  0  0
   -0.6253    0.0000    1.3935 C   0  0  0  0  0  4           0  0  0
    0.0000    0.0000    0.0000 C   0  0  0  0  0  4           0  0  0
    1.5276    0.0000    0.0000 C   0  0  0  0  0  4           0  0  0
    2.1529    0.0000   -1.3935 C   0  0  0  0  0  4           0  0  0
    3.6802   -0.0000   -1.3935 C   0  0  0  0  0  4           0  0  0
    4.3055    0.0000   -2.7869 C   0  0  0  0  0  4           0  0  0
    5.8328    0.0000   -2.7869 C   0  0  0  0  0  4           0  0  0
    6.4581    0.0000   -4.1804 C   0  0  0  0  0  4           0  0  0
    7.9855   -0.0000   -4.1804 C   0  0  0  0  0  4           0  0  0
    8.6107    0.0000   -5.5739 C   0  0  0  0  0  4           0  0  0
   10.1381   -0.0000   -5.5739 C   0  0  0  0  0  4           0  0  0
   10.7634    0.0000   -6.9673 C   0  0  0  0  0  4           0  0  0
   12.2907    0.0000   -6.9673 C   0  0  0  0  0  4           0  0  0
   12.8466    0.0000   -8.3819 C   0  0  0  0  0  4           0  0  0
  1 17  2  0     0  0
  2 18  2  0     0  0
  3 19  2  0     0  0
  4 17  1  0     0  0
  5  6  1  0     0  0
  5  8  1  0     0  0
  6  9  2  0     0  0
  7 10  1  0     0  0
  7 18  1  0     0  0
  8 12  2  0     0  0
  8 18  1  0     0  0
  9 12  1  0     0  0
  9 19  1  0     0  0
 10 11  2  0     0  0
 10 13  1  0     0  0
 11 14  1  0     0  0
 11 17  1  0     0  0
 13 15  2  0     0  0
 14 16  2  0     0  0
 15 16  1  0     0  0
 19 20  1  0     0  0
 20 21  1  0     0  0
 21 22  1  0     0  0
 22 23  1  0     0  0
 23 24  1  0     0  0
 24 25  1  0     0  0
 25 26  1  0     0  0
 26 27  1  0     0  0
 27 28  1  0     0  0
 28 29  1  0     0  0
 29 30  1  0     0  0
 30 31  1  0     0  0
 31 32  1  0     0  0
 32 33  1  0     0  0
 33 34  1  0     0  0
 34 35  1  0     0  0
 35 36  1  0     0  0
M  END
> <standard_type>
pIC50

> <# Confs.>
25

> <canonical_smiles>
O=C(CCCCCCCCCCCCCCCCC)C1=NNC(C(NC2=C(C(O)=O)C=CC=C2)=O)=C1

> <standard_relation>
=

> <predicted_activity_value>
6.443697499232712

> <actual_activity_value>
6.795880017344075

> <Compound>
22

> <publication_ID>
nan

> <standard_units>
nM

> hash
952520347405200910

$$$$
22_
XXILIB    08252103423D 0   0.00000     0.00000

 36 37  0     1  0            999 V2000
   -7.2893    0.5513    9.5484 O   0  0  0  0  0  2           0  0  0
  -10.5899   -0.0814    5.8125 O   0  0  0  0  0  2           0  0  0
   -4.0390    0.0000    5.1515 O   0  0  0  0  0  2           0  0  0
   -7.6525   -0.6602   11.4307 O   0  0  0  0  0  2           0  0  0
   -8.3332   -0.0278    4.0349 N   0  0  0  0  0  3           0  0  0
   -7.1374   -0.0107    3.4288 N   0  0  0  0  0  3           0  0  0
   -9.1571   -0.0785    7.6242 N   0  0  0  0  0  3           0  0  0
   -8.2798   -0.0410    5.4041 C   0  0  0  0  0  4           0  0  0
   -6.2643   -0.0106    4.4433 C   0  0  0  0  0  4           0  0  0
  -10.0250   -0.1046    8.7352 C   0  0  0  0  0  4           0  0  0
   -9.5089   -0.1108   10.0462 C   0  0  0  0  0  4           0  0  0
   -6.9300   -0.0249    5.6946 C   0  0  0  0  0  4           0  0  0
  -11.4168   -0.1426    8.5540 C   0  0  0  0  0  4           0  0  0
  -10.3824   -0.1489   11.1444 C   0  0  0  0  0  4           0  0  0
  -12.2776   -0.1830    9.6529 C   0  0  0  0  0  4           0  0  0
  -11.7616   -0.1858   10.9451 C   0  0  0  0  0  4           0  0  0
   -8.0559   -0.0322   10.3011 C   0  0  0  0  0  4           0  0  0
   -9.4445   -0.0681    6.2635 C   0  0  0  0  0  4           0  0  0
   -4.8281    0.0000    4.2057 C   0  0  0  0  0  4           0  0  0
   -4.2983   -0.0000    2.7869 C   0  0  0  0  0  4           0  0  0
   -2.7779    0.0000    2.7869 C   0  0  0  0  0  4           0  0  0
   -2.1526   -0.0000    1.3935 C   0  0  0  0  0  4           0  0  0
   -0.6253   -0.0000    1.3935 C   0  0  0  0  0  4           0  0  0
    0.0000    0.0000   -0.0000 C   0  0  0  0  0  4           0  0  0
    1.5276    0.0000    0.0000 C   0  0  0  0  0  4           0  0  0
    2.1529   -1.2068    0.6967 C   0  0  0  0  0  4           0  0  0
    1.7732   -2.5512    0.0795 C   0  0  0  0  0  4           0  0  0
    2.3985   -3.7580    0.7762 C   0  0  0  0  0  4           0  0  0
    2.0188   -5.1025    0.1590 C   0  0  0  0  0  4           0  0  0
    2.6441   -6.3093    0.8557 C   0  0  0  0  0  4           0  0  0
    2.2644   -7.6537    0.2385 C   0  0  0  0  0  4           0  0  0
    2.8897   -8.8605    0.9352 C   0  0  0  0  0  4           0  0  0
    2.5100  -10.2050    0.3180 C   0  0  0  0  0  4           0  0  0
    3.1353  -11.4118    1.0147 C   0  0  0  0  0  4           0  0  0
    2.7557  -12.7562    0.3975 C   0  0  0  0  0  4           0  0  0
    3.4100  -13.9119    1.1366 C   0  0  0  0  0  4           0  0  0
  1 17  2  0     0  0
  2 18  2  0     0  0
  3 19  2  0     0  0
  4 17  1  0     0  0
  5  6  1  0     0  0
  5  8  1  0     0  0
  6  9  2  0     0  0
  7 10  1  0     0  0
  7 18  1  0     0  0
  8 12  2  0     0  0
  8 18  1  0     0  0
  9 12  1  0     0  0
  9 19  1  0     0  0
 10 11  2  0     0  0
 10 13  1  0     0  0
 11 14  1  0     0  0
 11 17  1  0     0  0
 13 15  2  0     0  0
 14 16  2  0     0  0
 15 16  1  0     0  0
 19 20  1  0     0  0
 20 21  1  0     0  0
 21 22  1  0     0  0
 22 23  1  0     0  0
 23 24  1  0     0  0
 24 25  1  0     0  0
 25 26  1  0     0  0
 26 27  1  0     0  0
 27 28  1  0     0  0
 28 29  1  0     0  0
 29 30  1  0     0  0
 30 31  1  0     0  0
 31 32  1  0     0  0
 32 33  1  0     0  0
 33 34  1  0     0  0
 34 35  1  0     0  0
 35 36  1  0     0  0
M  END
> <standard_type>
pIC50

> <# Confs.>
25

> <canonical_smiles>
O=C(CCCCCCCCCCCCCCCCC)C1=NNC(C(NC2=C(C(O)=O)C=CC=C2)=O)=C1

> <standard_relation>
=

> <predicted_activity_value>
6.443697499232712

> <actual_activity_value>
6.795880017344075

> <Compound>
22

> <publication_ID>
nan

> <standard_units>
nM

> hash
952520347405200910

$$$$
22_
XXILIB    08252103423D 0   0.00000     0.00000

 36 37  0     1  0            999 V2000
   -7.2893    0.5513    9.5484 O   0  0  0  0  0  2           0  0  0
  -10.5899   -0.0814    5.8125 O   0  0  0  0  0  2           0  0  0
   -4.0390    0.0000    5.1515 O   0  0  0  0  0  2           0  0  0
   -7.6525   -0.6602   11.4307 O   0  0  0  0  0  2           0  0  0
   -8.3332   -0.0278    4.0349 N   0  0  0  0  0  3           0  0  0
   -7.1374   -0.0107    3.4288 N   0  0  0  0  0  3           0  0  0
   -9.1571   -0.0785    7.6242 N   0  0  0  0  0  3           0  0  0
   -8.2798   -0.0410    5.4041 C   0  0  0  0  0  4           0  0  0
   -6.2643   -0.0106    4.4433 C   0  0  0  0  0  4           0  0  0
  -10.0250   -0.1046    8.7352 C   0  0  0  0  0  4           0  0  0
   -9.5089   -0.1108   10.0462 C   0  0  0  0  0  4           0  0  0
   -6.9300   -0.0249    5.6946 C   0  0  0  0  0  4           0  0  0
  -11.4168   -0.1426    8.5540 C   0  0  0  0  0  4           0  0  0
  -10.3824   -0.1489   11.1444 C   0  0  0  0  0  4           0  0  0
  -12.2776   -0.1830    9.6529 C   0  0  0  0  0  4           0  0  0
  -11.7616   -0.1858   10.9451 C   0  0  0  0  0  4           0  0  0
   -8.0559   -0.0322   10.3011 C   0  0  0  0  0  4           0  0  0
   -9.4445   -0.0681    6.2635 C   0  0  0  0  0  4           0  0  0
   -4.8281    0.0000    4.2057 C   0  0  0  0  0  4           0  0  0
   -4.2983   -0.0000    2.7869 C   0  0  0  0  0  4           0  0  0
   -2.7779    0.0000    2.7869 C   0  0  0  0  0  4           0  0  0
   -2.1526   -0.0000    1.3935 C   0  0  0  0  0  4           0  0  0
   -0.6253   -0.0000    1.3935 C   0  0  0  0  0  4           0  0  0
    0.0000    0.0000   -0.0000 C   0  0  0  0  0  4           0  0  0
    1.5276    0.0000    0.0000 C   0  0  0  0  0  4           0  0  0
    2.1529    1.2068    0.6967 C   0  0  0  0  0  4           0  0  0
    1.7732    2.5512    0.0795 C   0  0  0  0  0  4           0  0  0
    2.3985    3.7580    0.7762 C   0  0  0  0  0  4           0  0  0
    2.0188    5.1025    0.1590 C   0  0  0  0  0  4           0  0  0
    2.6441    6.3093    0.8557 C   0  0  0  0  0  4           0  0  0
    2.2644    7.6537    0.2385 C   0  0  0  0  0  4           0  0  0
    2.8897    8.8605    0.9352 C   0  0  0  0  0  4           0  0  0
    2.5100   10.2050    0.3180 C   0  0  0  0  0  4           0  0  0
    3.1353   11.4118    1.0147 C   0  0  0  0  0  4           0  0  0
    2.7557   12.7562    0.3975 C   0  0  0  0  0  4           0  0  0
    3.4100   13.9119    1.1366 C   0  0  0  0  0  4           0  0  0
  1 17  2  0     0  0
  2 18  2  0     0  0
  3 19  2  0     0  0
  4 17  1  0     0  0
  5  6  1  0     0  0
  5  8  1  0     0  0
  6  9  2  0     0  0
  7 10  1  0     0  0
  7 18  1  0     0  0
  8 12  2  0     0  0
  8 18  1  0     0  0
  9 12  1  0     0  0
  9 19  1  0     0  0
 10 11  2  0     0  0
 10 13  1  0     0  0
 11 14  1  0     0  0
 11 17  1  0     0  0
 13 15  2  0     0  0
 14 16  2  0     0  0
 15 16  1  0     0  0
 19 20  1  0     0  0
 20 21  1  0     0  0
 21 22  1  0     0  0
 22 23  1  0     0  0
 23 24  1  0     0  0
 24 25  1  0     0  0
 25 26  1  0     0  0
 26 27  1  0     0  0
 27 28  1  0     0  0
 28 29  1  0     0  0
 29 30  1  0     0  0
 30 31  1  0     0  0
 31 32  1  0     0  0
 32 33  1  0     0  0
 33 34  1  0     0  0
 34 35  1  0     0  0
 35 36  1  0     0  0
M  END
> <standard_type>
pIC50

> <# Confs.>
25

> <canonical_smiles>
O=C(CCCCCCCCCCCCCCCCC)C1=NNC(C(NC2=C(C(O)=O)C=CC=C2)=O)=C1

> <standard_relation>
=

> <predicted_activity_value>
6.443697499232712

> <actual_activity_value>
6.795880017344075

> <Compound>
22

> <publication_ID>
nan

> <standard_units>
nM

> hash
952520347405200910

$$$$
22_
XXILIB    08252103423D 0   0.00000     0.00000

 36 37  0     1  0            999 V2000
   -7.6402   -0.6019    9.7431 O   0  0  0  0  0  2           0  0  0
  -10.0211    2.3473    6.0249 O   0  0  0  0  0  2           0  0  0
   -4.1733   -0.5351    5.1013 O   0  0  0  0  0  2           0  0  0
   -7.1538    1.0386   11.2313 O   0  0  0  0  0  2           0  0  0
   -7.9266    1.6476    4.1867 N   0  0  0  0  0  3           0  0  0
   -6.8368    1.2083    3.5410 N   0  0  0  0  0  3           0  0  0
   -8.8349    1.3618    7.7445 N   0  0  0  0  0  3           0  0  0
   -7.9458    1.3716    5.5288 C   0  0  0  0  0  4           0  0  0
   -6.1108    0.6220    4.5006 C   0  0  0  0  0  4           0  0  0
   -9.6618    1.5514    8.8708 C   0  0  0  0  0  4           0  0  0
   -9.2669    1.0749   10.1365 C   0  0  0  0  0  4           0  0  0
   -6.7599    0.7025    5.7581 C   0  0  0  0  0  4           0  0  0
  -10.8998    2.2021    8.7470 C   0  0  0  0  0  4           0  0  0
  -10.1038    1.2590   11.2485 C   0  0  0  0  0  4           0  0  0
  -11.7266    2.3782    9.8586 C   0  0  0  0  0  4           0  0  0
  -11.3293    1.9079   11.1065 C   0  0  0  0  0  4           0  0  0
   -7.9591    0.4178   10.3372 C   0  0  0  0  0  4           0  0  0
   -9.0240    1.7435    6.4205 C   0  0  0  0  0  4           0  0  0
   -4.8281   -0.0000    4.2057 C   0  0  0  0  0  4           0  0  0
   -4.2983    0.0000    2.7869 C   0  0  0  0  0  4           0  0  0
   -2.7779    0.0000    2.7869 C   0  0  0  0  0  4           0  0  0
   -2.1526    0.0000    1.3935 C   0  0  0  0  0  4           0  0  0
   -0.6253    0.0000    1.3935 C   0  0  0  0  0  4           0  0  0
    0.0000    0.0000   -0.0000 C   0  0  0  0  0  4           0  0  0
    1.5276    0.0000    0.0000 C   0  0  0  0  0  4           0  0  0
    2.1529    0.0000   -1.3935 C   0  0  0  0  0  4           0  0  0
    3.6802   -0.0000   -1.3935 C   0  0  0  0  0  4           0  0  0
    4.3055    0.0000   -2.7869 C   0  0  0  0  0  4           0  0  0
    5.8328    0.0000   -2.7869 C   0  0  0  0  0  4           0  0  0
    6.4581    0.0000   -4.1804 C   0  0  0  0  0  4           0  0  0
    7.9855   -0.0000   -4.1804 C   0  0  0  0  0  4           0  0  0
    8.6107    0.0000   -5.5739 C   0  0  0  0  0  4           0  0  0
   10.1381   -0.0000   -5.5739 C   0  0  0  0  0  4           0  0  0
   10.7634    0.0000   -6.9673 C   0  0  0  0  0  4           0  0  0
   12.2907    0.0000   -6.9673 C   0  0  0  0  0  4           0  0  0
   12.8466    0.0000   -8.3819 C   0  0  0  0  0  4           0  0  0
  1 17  2  0     0  0
  2 18  2  0     0  0
  3 19  2  0     0  0
  4 17  1  0     0  0
  5  6  1  0     0  0
  5  8  1  0     0  0
  6  9  2  0     0  0
  7 10  1  0     0  0
  7 18  1  0     0  0
  8 12  2  0     0  0
  8 18  1  0     0  0
  9 12  1  0     0  0
  9 19  1  0     0  0
 10 11  2  0     0  0
 10 13  1  0     0  0
 11 14  1  0     0  0
 11 17  1  0     0  0
 13 15  2  0     0  0
 14 16  2  0     0  0
 15 16  1  0     0  0
 19 20  1  0     0  0
 20 21  1  0     0  0
 21 22  1  0     0  0
 22 23  1  0     0  0
 23 24  1  0     0  0
 24 25  1  0     0  0
 25 26  1  0     0  0
 26 27  1  0     0  0
 27 28  1  0     0  0
 28 29  1  0     0  0
 29 30  1  0     0  0
 30 31  1  0     0  0
 31 32  1  0     0  0
 32 33  1  0     0  0
 33 34  1  0     0  0
 34 35  1  0     0  0
 35 36  1  0     0  0
M  END
> <standard_type>
pIC50

> <# Confs.>
25

> <canonical_smiles>
O=C(CCCCCCCCCCCCCCCCC)C1=NNC(C(NC2=C(C(O)=O)C=CC=C2)=O)=C1

> <standard_relation>
=

> <predicted_activity_value>
6.443697499232712

> <actual_activity_value>
6.795880017344075

> <Compound>
22

> <publication_ID>
nan

> <standard_units>
nM

> hash
952520347405200910

$$$$
22_
XXILIB    08252103423D 0   0.00000     0.00000

 36 37  0     1  0            999 V2000
   -7.2893    0.5513    9.5484 O   0  0  0  0  0  2           0  0  0
  -10.5899   -0.0814    5.8125 O   0  0  0  0  0  2           0  0  0
   -4.0390    0.0000    5.1515 O   0  0  0  0  0  2           0  0  0
   -7.6525   -0.6602   11.4307 O   0  0  0  0  0  2           0  0  0
   -8.3332   -0.0278    4.0349 N   0  0  0  0  0  3           0  0  0
   -7.1374   -0.0107    3.4288 N   0  0  0  0  0  3           0  0  0
   -9.1571   -0.0785    7.6242 N   0  0  0  0  0  3           0  0  0
   -8.2798   -0.0410    5.4041 C   0  0  0  0  0  4           0  0  0
   -6.2643   -0.0106    4.4433 C   0  0  0  0  0  4           0  0  0
  -10.0250   -0.1046    8.7352 C   0  0  0  0  0  4           0  0  0
   -9.5089   -0.1108   10.0462 C   0  0  0  0  0  4           0  0  0
   -6.9300   -0.0249    5.6946 C   0  0  0  0  0  4           0  0  0
  -11.4168   -0.1426    8.5540 C   0  0  0  0  0  4           0  0  0
  -10.3824   -0.1489   11.1444 C   0  0  0  0  0  4           0  0  0
  -12.2776   -0.1830    9.6529 C   0  0  0  0  0  4           0  0  0
  -11.7616   -0.1858   10.9451 C   0  0  0  0  0  4           0  0  0
   -8.0559   -0.0322   10.3011 C   0  0  0  0  0  4           0  0  0
   -9.4445   -0.0681    6.2635 C   0  0  0  0  0  4           0  0  0
   -4.8281    0.0000    4.2057 C   0  0  0  0  0  4           0  0  0
   -4.2983   -0.0000    2.7869 C   0  0  0  0  0  4           0  0  0
   -2.7779    0.0000    2.7869 C   0  0  0  0  0  4           0  0  0
   -2.1526   -0.0000    1.3935 C   0  0  0  0  0  4           0  0  0
   -0.6253   -0.0000    1.3935 C   0  0  0  0  0  4           0  0  0
    0.0000    0.0000   -0.0000 C   0  0  0  0  0  4           0  0  0
    1.5276    0.0000   -0.0000 C   0  0  0  0  0  4           0  0  0
    2.1529    0.0000   -1.3935 C   0  0  0  0  0  4           0  0  0
    1.7732    1.2068   -2.2492 C   0  0  0  0  0  4           0  0  0
    2.1809    2.5512   -1.6501 C   0  0  0  0  0  4           0  0  0
    1.8012    3.7580   -2.5058 C   0  0  0  0  0  4           0  0  0
    2.2089    5.1025   -1.9067 C   0  0  0  0  0  4           0  0  0
    1.8293    6.3093   -2.7625 C   0  0  0  0  0  4           0  0  0
    2.2370    7.6537   -2.1634 C   0  0  0  0  0  4           0  0  0
    1.8573    8.8605   -3.0191 C   0  0  0  0  0  4           0  0  0
    2.2650   10.2050   -2.4200 C   0  0  0  0  0  4           0  0  0
    1.8853   11.4118   -3.2757 C   0  0  0  0  0  4           0  0  0
    2.3188   12.7143   -2.6234 C   0  0  0  0  0  4           0  0  0
  1 17  2  0     0  0
  2 18  2  0     0  0
  3 19  2  0     0  0
  4 17  1  0     0  0
  5  6  1  0     0  0
  5  8  1  0     0  0
  6  9  2  0     0  0
  7 10  1  0     0  0
  7 18  1  0     0  0
  8 12  2  0     0  0
  8 18  1  0     0  0
  9 12  1  0     0  0
  9 19  1  0     0  0
 10 11  2  0     0  0
 10 13  1  0     0  0
 11 14  1  0     0  0
 11 17  1  0     0  0
 13 15  2  0     0  0
 14 16  2  0     0  0
 15 16  1  0     0  0
 19 20  1  0     0  0
 20 21  1  0     0  0
 21 22  1  0     0  0
 22 23  1  0     0  0
 23 24  1  0     0  0
 24 25  1  0     0  0
 25 26  1  0     0  0
 26 27  1  0     0  0
 27 28  1  0     0  0
 28 29  1  0     0  0
 29 30  1  0     0  0
 30 31  1  0     0  0
 31 32  1  0     0  0
 32 33  1  0     0  0
 33 34  1  0     0  0
 34 35  1  0     0  0
 35 36  1  0     0  0
M  END
> <standard_type>
pIC50

> <# Confs.>
25

> <canonical_smiles>
O=C(CCCCCCCCCCCCCCCCC)C1=NNC(C(NC2=C(C(O)=O)C=CC=C2)=O)=C1

> <standard_relation>
=

> <predicted_activity_value>
6.443697499232712

> <actual_activity_value>
6.795880017344075

> <Compound>
22

> <publication_ID>
nan

> <standard_units>
nM

> hash
952520347405200910

$$$$
32_
XXILIB    08252103423D 0   0.00000     0.00000

 37 38  0     1  0            999 V2000
  -10.1114   -0.2666    2.8824 O   0  0  0  0  0  2           0  0  0
   -7.9126    0.1844    7.4705 O   0  0  0  0  0  2           0  0  0
   -4.8855   -0.0000    1.6344 O   0  0  0  0  0  2           0  0  0
  -12.0855    0.9050    2.7139 O   0  0  0  0  0  2           0  0  0
   -5.3730    0.0725    6.0425 N   0  0  0  0  0  3           0  0  0
   -4.3827    0.0358    5.1392 N   0  0  0  0  0  3           0  0  0
   -9.0206    0.1842    5.4445 N   0  0  0  0  0  3           0  0  0
   -6.6333    0.1050    5.5061 C   0  0  0  0  0  4           0  0  0
   -5.0220    0.0357    3.9632 C   0  0  0  0  0  4           0  0  0
  -10.3819    0.2366    5.8077 C   0  0  0  0  0  4           0  0  0
  -11.3850    0.2520    4.8199 C   0  0  0  0  0  4           0  0  0
   -6.4274    0.0729    4.1420 C   0  0  0  0  0  4           0  0  0
  -10.7638    0.2477    7.1580 C   0  0  0  0  0  4           0  0  0
  -12.7380    0.2484    5.1853 C   0  0  0  0  0  4           0  0  0
  -12.1141    0.2614    7.5151 C   0  0  0  0  0  4           0  0  0
  -13.0990    0.2578    6.5312 C   0  0  0  0  0  4           0  0  0
  -11.1014    0.2537    3.3720 C   0  0  0  0  0  4           0  0  0
   -7.8799    0.1606    6.2403 C   0  0  0  0  0  4           0  0  0
   -4.2958   -0.0000    2.7122 C   0  0  0  0  0  4           0  0  0
  -11.9233    0.9767    1.2937 C   0  0  0  0  0  4           0  0  0
   -2.7874    0.0000    2.7834 C   0  0  0  0  0  4           0  0  0
   -2.1576   -0.0000    1.3919 C   0  0  0  0  0  4           0  0  0
   -0.6299   -0.0000    1.3919 C   0  0  0  0  0  4           0  0  0
    0.0000    0.0000    0.0000 C   0  0  0  0  0  4           0  0  0
    1.5274    0.0000    0.0000 C   0  0  0  0  0  4           0  0  0
    2.1573    0.0000   -1.3919 C   0  0  0  0  0  4           0  0  0
    3.6850    0.0000   -1.3919 C   0  0  0  0  0  4           0  0  0
    4.3149    0.0000   -2.7837 C   0  0  0  0  0  4           0  0  0
    5.8427    0.0000   -2.7837 C   0  0  0  0  0  4           0  0  0
    6.4726    0.0000   -4.1756 C   0  0  0  0  0  4           0  0  0
    8.0003    0.0000   -4.1756 C   0  0  0  0  0  4           0  0  0
    8.6302    0.0000   -5.5674 C   0  0  0  0  0  4           0  0  0
   10.1580    0.0000   -5.5674 C   0  0  0  0  0  4           0  0  0
   10.7879    0.0000   -6.9593 C   0  0  0  0  0  4           0  0  0
   12.3156    0.0000   -6.9593 C   0  0  0  0  0  4           0  0  0
   12.9455    0.0000   -8.3511 C   0  0  0  0  0  4           0  0  0
   14.4637   -0.0000   -8.2775 C   0  0  0  0  0  4           0  0  0
  1 17  2  0     0  0
  2 18  2  0     0  0
  3 19  2  0     0  0
  4 17  1  0     0  0
  4 20  1  0     0  0
  5  6  1  0     0  0
  5  8  1  0     0  0
  6  9  2  0     0  0
  7 10  1  0     0  0
  7 18  1  0     0  0
  8 12  2  0     0  0
  8 18  1  0     0  0
  9 12  1  0     0  0
  9 19  1  0     0  0
 10 11  2  0     0  0
 10 13  1  0     0  0
 11 14  1  0     0  0
 11 17  1  0     0  0
 13 15  2  0     0  0
 14 16  2  0     0  0
 15 16  1  0     0  0
 19 21  1  0     0  0
 21 22  1  0     0  0
 22 23  1  0     0  0
 23 24  1  0     0  0
 24 25  1  0     0  0
 25 26  1  0     0  0
 26 27  1  0     0  0
 27 28  1  0     0  0
 28 29  1  0     0  0
 29 30  1  0     0  0
 30 31  1  0     0  0
 31 32  1  0     0  0
 32 33  1  0     0  0
 33 34  1  0     0  0
 34 35  1  0     0  0
 35 36  1  0     0  0
 36 37  1  0     0  0
M  END
> <standard_type>
pIC50

> <# Confs.>
25

> <canonical_smiles>
O=C(C1=CC(C(CCCCCCCCCCCCCCCCC)=O)=NN1)NC2=C(C(OC)=O)C=CC=C2

> <standard_relation>
=

> <predicted_activity_value>
5.4089353929735005

> <actual_activity_value>
5.294136287716081

> <Compound>
32

> <publication_ID>
nan

> <standard_units>
nM

> hash
1072549932847219870

$$$$
32_
XXILIB    08252103423D 0   0.00000     0.00000

 37 38  0     1  0            999 V2000
  -10.1114   -0.2666    2.8824 O   0  0  0  0  0  2           0  0  0
   -7.9126    0.1844    7.4705 O   0  0  0  0  0  2           0  0  0
   -4.8855   -0.0000    1.6344 O   0  0  0  0  0  2           0  0  0
  -12.0855    0.9050    2.7139 O   0  0  0  0  0  2           0  0  0
   -5.3730    0.0725    6.0425 N   0  0  0  0  0  3           0  0  0
   -4.3827    0.0358    5.1392 N   0  0  0  0  0  3           0  0  0
   -9.0206    0.1842    5.4445 N   0  0  0  0  0  3           0  0  0
   -6.6333    0.1050    5.5061 C   0  0  0  0  0  4           0  0  0
   -5.0220    0.0357    3.9632 C   0  0  0  0  0  4           0  0  0
  -10.3819    0.2366    5.8077 C   0  0  0  0  0  4           0  0  0
  -11.3850    0.2520    4.8199 C   0  0  0  0  0  4           0  0  0
   -6.4274    0.0729    4.1420 C   0  0  0  0  0  4           0  0  0
  -10.7638    0.2477    7.1580 C   0  0  0  0  0  4           0  0  0
  -12.7380    0.2484    5.1853 C   0  0  0  0  0  4           0  0  0
  -12.1141    0.2614    7.5151 C   0  0  0  0  0  4           0  0  0
  -13.0990    0.2578    6.5312 C   0  0  0  0  0  4           0  0  0
  -11.1014    0.2537    3.3720 C   0  0  0  0  0  4           0  0  0
   -7.8799    0.1606    6.2403 C   0  0  0  0  0  4           0  0  0
   -4.2958   -0.0000    2.7122 C   0  0  0  0  0  4           0  0  0
  -11.9233    0.9767    1.2937 C   0  0  0  0  0  4           0  0  0
   -2.7874    0.0000    2.7834 C   0  0  0  0  0  4           0  0  0
   -2.1576   -0.0000    1.3919 C   0  0  0  0  0  4           0  0  0
   -0.6299   -0.0000    1.3919 C   0  0  0  0  0  4           0  0  0
    0.0000    0.0000    0.0000 C   0  0  0  0  0  4           0  0  0
    1.5274    0.0000    0.0000 C   0  0  0  0  0  4           0  0  0
    2.1573   -1.2054    0.6959 C   0  0  0  0  0  4           0  0  0
    3.6850   -1.2054    0.6959 C   0  0  0  0  0  4           0  0  0
    4.3149   -2.4108    1.3919 C   0  0  0  0  0  4           0  0  0
    5.8427   -2.4108    1.3919 C   0  0  0  0  0  4           0  0  0
    6.4726   -3.6161    2.0878 C   0  0  0  0  0  4           0  0  0
    8.0003   -3.6161    2.0878 C   0  0  0  0  0  4           0  0  0
    8.6302   -4.8215    2.7837 C   0  0  0  0  0  4           0  0  0
   10.1580   -4.8215    2.7837 C   0  0  0  0  0  4           0  0  0
   10.7879   -6.0269    3.4796 C   0  0  0  0  0  4           0  0  0
   12.3156   -6.0269    3.4796 C   0  0  0  0  0  4           0  0  0
   12.9455   -7.2323    4.1756 C   0  0  0  0  0  4           0  0  0
   14.4637   -7.1685    4.1388 C   0  0  0  0  0  4           0  0  0
  1 17  2  0     0  0
  2 18  2  0     0  0
  3 19  2  0     0  0
  4 17  1  0     0  0
  4 20  1  0     0  0
  5  6  1  0     0  0
  5  8  1  0     0  0
  6  9  2  0     0  0
  7 10  1  0     0  0
  7 18  1  0     0  0
  8 12  2  0     0  0
  8 18  1  0     0  0
  9 12  1  0     0  0
  9 19  1  0     0  0
 10 11  2  0     0  0
 10 13  1  0     0  0
 11 14  1  0     0  0
 11 17  1  0     0  0
 13 15  2  0     0  0
 14 16  2  0     0  0
 15 16  1  0     0  0
 19 21  1  0     0  0
 21 22  1  0     0  0
 22 23  1  0     0  0
 23 24  1  0     0  0
 24 25  1  0     0  0
 25 26  1  0     0  0
 26 27  1  0     0  0
 27 28  1  0     0  0
 28 29  1  0     0  0
 29 30  1  0     0  0
 30 31  1  0     0  0
 31 32  1  0     0  0
 32 33  1  0     0  0
 33 34  1  0     0  0
 34 35  1  0     0  0
 35 36  1  0     0  0
 36 37  1  0     0  0
M  END
> <standard_type>
pIC50

> <# Confs.>
25

> <canonical_smiles>
O=C(C1=CC(C(CCCCCCCCCCCCCCCCC)=O)=NN1)NC2=C(C(OC)=O)C=CC=C2

> <standard_relation>
=

> <predicted_activity_value>
5.4089353929735005

> <actual_activity_value>
5.294136287716081

> <Compound>
32

> <publication_ID>
nan

> <standard_units>
nM

> hash
1072549932847219870

$$$$
32_
XXILIB    08252103423D 0   0.00000     0.00000

 37 38  0     1  0            999 V2000
  -10.1114   -0.2666    2.8824 O   0  0  0  0  0  2           0  0  0
   -7.9126    0.1844    7.4705 O   0  0  0  0  0  2           0  0  0
   -4.8855   -0.0000    1.6344 O   0  0  0  0  0  2           0  0  0
  -12.0855    0.9050    2.7139 O   0  0  0  0  0  2           0  0  0
   -5.3730    0.0725    6.0425 N   0  0  0  0  0  3           0  0  0
   -4.3827    0.0358    5.1392 N   0  0  0  0  0  3           0  0  0
   -9.0206    0.1842    5.4445 N   0  0  0  0  0  3           0  0  0
   -6.6333    0.1050    5.5061 C   0  0  0  0  0  4           0  0  0
   -5.0220    0.0357    3.9632 C   0  0  0  0  0  4           0  0  0
  -10.3819    0.2366    5.8077 C   0  0  0  0  0  4           0  0  0
  -11.3850    0.2520    4.8199 C   0  0  0  0  0  4           0  0  0
   -6.4274    0.0729    4.1420 C   0  0  0  0  0  4           0  0  0
  -10.7638    0.2477    7.1580 C   0  0  0  0  0  4           0  0  0
  -12.7380    0.2484    5.1853 C   0  0  0  0  0  4           0  0  0
  -12.1141    0.2614    7.5151 C   0  0  0  0  0  4           0  0  0
  -13.0990    0.2578    6.5312 C   0  0  0  0  0  4           0  0  0
  -11.1014    0.2537    3.3720 C   0  0  0  0  0  4           0  0  0
   -7.8799    0.1606    6.2403 C   0  0  0  0  0  4           0  0  0
   -4.2958   -0.0000    2.7122 C   0  0  0  0  0  4           0  0  0
  -11.9233    0.9767    1.2937 C   0  0  0  0  0  4           0  0  0
   -2.7874    0.0000    2.7834 C   0  0  0  0  0  4           0  0  0
   -2.1576   -0.0000    1.3919 C   0  0  0  0  0  4           0  0  0
   -0.6299   -0.0000    1.3919 C   0  0  0  0  0  4           0  0  0
    0.0000    0.0000    0.0000 C   0  0  0  0  0  4           0  0  0
    1.5274    0.0000    0.0000 C   0  0  0  0  0  4           0  0  0
    2.1573    0.0000   -1.3919 C   0  0  0  0  0  4           0  0  0
    1.7829    1.2054   -2.2527 C   0  0  0  0  0  4           0  0  0
    2.4128    1.2054   -3.6445 C   0  0  0  0  0  4           0  0  0
    2.0385    2.4108   -4.5053 C   0  0  0  0  0  4           0  0  0
    2.6684    2.4108   -5.8972 C   0  0  0  0  0  4           0  0  0
    2.2941    3.6161   -6.7579 C   0  0  0  0  0  4           0  0  0
    2.9240    3.6161   -8.1498 C   0  0  0  0  0  4           0  0  0
    2.5497    4.8215   -9.0106 C   0  0  0  0  0  4           0  0  0
    3.1796    4.8215  -10.4025 C   0  0  0  0  0  4           0  0  0
    2.8052    6.0269  -11.2632 C   0  0  0  0  0  4           0  0  0
    3.4351    6.0269  -12.6551 C   0  0  0  0  0  4           0  0  0
    3.0217    7.2511  -13.4557 C   0  0  0  0  0  4           0  0  0
  1 17  2  0     0  0
  2 18  2  0     0  0
  3 19  2  0     0  0
  4 17  1  0     0  0
  4 20  1  0     0  0
  5  6  1  0     0  0
  5  8  1  0     0  0
  6  9  2  0     0  0
  7 10  1  0     0  0
  7 18  1  0     0  0
  8 12  2  0     0  0
  8 18  1  0     0  0
  9 12  1  0     0  0
  9 19  1  0     0  0
 10 11  2  0     0  0
 10 13  1  0     0  0
 11 14  1  0     0  0
 11 17  1  0     0  0
 13 15  2  0     0  0
 14 16  2  0     0  0
 15 16  1  0     0  0
 19 21  1  0     0  0
 21 22  1  0     0  0
 22 23  1  0     0  0
 23 24  1  0     0  0
 24 25  1  0     0  0
 25 26  1  0     0  0
 26 27  1  0     0  0
 27 28  1  0     0  0
 28 29  1  0     0  0
 29 30  1  0     0  0
 30 31  1  0     0  0
 31 32  1  0     0  0
 32 33  1  0     0  0
 33 34  1  0     0  0
 34 35  1  0     0  0
 35 36  1  0     0  0
 36 37  1  0     0  0
M  END
> <standard_type>
pIC50

> <# Confs.>
25

> <canonical_smiles>
O=C(C1=CC(C(CCCCCCCCCCCCCCCCC)=O)=NN1)NC2=C(C(OC)=O)C=CC=C2

> <standard_relation>
=

> <predicted_activity_value>
5.4089353929735005

> <actual_activity_value>
5.294136287716081

> <Compound>
32

> <publication_ID>
nan

> <standard_units>
nM

> hash
1072549932847219870

$$$$
32_
XXILIB    08252103423D 0   0.00000     0.00000

 37 38  0     1  0            999 V2000
  -10.1114   -0.2666    2.8824 O   0  0  0  0  0  2           0  0  0
   -7.9126    0.1844    7.4705 O   0  0  0  0  0  2           0  0  0
   -4.8855   -0.0000    1.6344 O   0  0  0  0  0  2           0  0  0
  -12.0855    0.9050    2.7139 O   0  0  0  0  0  2           0  0  0
   -5.3730    0.0725    6.0425 N   0  0  0  0  0  3           0  0  0
   -4.3827    0.0358    5.1392 N   0  0  0  0  0  3           0  0  0
   -9.0206    0.1842    5.4445 N   0  0  0  0  0  3           0  0  0
   -6.6333    0.1050    5.5061 C   0  0  0  0  0  4           0  0  0
   -5.0220    0.0357    3.9632 C   0  0  0  0  0  4           0  0  0
  -10.3819    0.2366    5.8077 C   0  0  0  0  0  4           0  0  0
  -11.3850    0.2520    4.8199 C   0  0  0  0  0  4           0  0  0
   -6.4274    0.0729    4.1420 C   0  0  0  0  0  4           0  0  0
  -10.7638    0.2477    7.1580 C   0  0  0  0  0  4           0  0  0
  -12.7380    0.2484    5.1853 C   0  0  0  0  0  4           0  0  0
  -12.1141    0.2614    7.5151 C   0  0  0  0  0  4           0  0  0
  -13.0990    0.2578    6.5312 C   0  0  0  0  0  4           0  0  0
  -11.1014    0.2537    3.3720 C   0  0  0  0  0  4           0  0  0
   -7.8799    0.1606    6.2403 C   0  0  0  0  0  4           0  0  0
   -4.2958   -0.0000    2.7122 C   0  0  0  0  0  4           0  0  0
  -11.9233    0.9767    1.2937 C   0  0  0  0  0  4           0  0  0
   -2.7874    0.0000    2.7834 C   0  0  0  0  0  4           0  0  0
   -2.1576   -0.0000    1.3919 C   0  0  0  0  0  4           0  0  0
   -0.6299   -0.0000    1.3919 C   0  0  0  0  0  4           0  0  0
    0.0000    0.0000    0.0000 C   0  0  0  0  0  4           0  0  0
    1.5274    0.0000    0.0000 C   0  0  0  0  0  4           0  0  0
    2.1573    0.0000   -1.3919 C   0  0  0  0  0  4           0  0  0
    3.6850   -0.0000   -1.3919 C   0  0  0  0  0  4           0  0  0
    4.3149   -1.2054   -0.6959 C   0  0  0  0  0  4           0  0  0
    5.8427   -1.2054   -0.6959 C   0  0  0  0  0  4           0  0  0
    6.4726   -2.4108    0.0000 C   0  0  0  0  0  4           0  0  0
    8.0003   -2.4108    0.0000 C   0  0  0  0  0  4           0  0  0
    8.6302   -3.6161    0.6959 C   0  0  0  0  0  4           0  0  0
   10.1580   -3.6161    0.6959 C   0  0  0  0  0  4           0  0  0
   10.7879   -4.8215    1.3919 C   0  0  0  0  0  4           0  0  0
   12.3156   -4.8215    1.3919 C   0  0  0  0  0  4           0  0  0
   12.9455   -6.0269    2.0878 C   0  0  0  0  0  4           0  0  0
   14.4637   -5.9631    2.0510 C   0  0  0  0  0  4           0  0  0
  1 17  2  0     0  0
  2 18  2  0     0  0
  3 19  2  0     0  0
  4 17  1  0     0  0
  4 20  1  0     0  0
  5  6  1  0     0  0
  5  8  1  0     0  0
  6  9  2  0     0  0
  7 10  1  0     0  0
  7 18  1  0     0  0
  8 12  2  0     0  0
  8 18  1  0     0  0
  9 12  1  0     0  0
  9 19  1  0     0  0
 10 11  2  0     0  0
 10 13  1  0     0  0
 11 14  1  0     0  0
 11 17  1  0     0  0
 13 15  2  0     0  0
 14 16  2  0     0  0
 15 16  1  0     0  0
 19 21  1  0     0  0
 21 22  1  0     0  0
 22 23  1  0     0  0
 23 24  1  0     0  0
 24 25  1  0     0  0
 25 26  1  0     0  0
 26 27  1  0     0  0
 27 28  1  0     0  0
 28 29  1  0     0  0
 29 30  1  0     0  0
 30 31  1  0     0  0
 31 32  1  0     0  0
 32 33  1  0     0  0
 33 34  1  0     0  0
 34 35  1  0     0  0
 35 36  1  0     0  0
 36 37  1  0     0  0
M  END
> <standard_type>
pIC50

> <# Confs.>
25

> <canonical_smiles>
O=C(C1=CC(C(CCCCCCCCCCCCCCCCC)=O)=NN1)NC2=C(C(OC)=O)C=CC=C2

> <standard_relation>
=

> <predicted_activity_value>
5.4089353929735005

> <actual_activity_value>
5.294136287716081

> <Compound>
32

> <publication_ID>
nan

> <standard_units>
nM

> hash
1072549932847219870

$$$$
32_
XXILIB    08252103423D 0   0.00000     0.00000

 37 38  0     1  0            999 V2000
  -10.1114   -0.2666    2.8824 O   0  0  0  0  0  2           0  0  0
   -7.9126    0.1844    7.4705 O   0  0  0  0  0  2           0  0  0
   -4.8855   -0.0000    1.6344 O   0  0  0  0  0  2           0  0  0
  -12.0855    0.9050    2.7139 O   0  0  0  0  0  2           0  0  0
   -5.3730    0.0725    6.0425 N   0  0  0  0  0  3           0  0  0
   -4.3827    0.0358    5.1392 N   0  0  0  0  0  3           0  0  0
   -9.0206    0.1842    5.4445 N   0  0  0  0  0  3           0  0  0
   -6.6333    0.1050    5.5061 C   0  0  0  0  0  4           0  0  0
   -5.0220    0.0357    3.9632 C   0  0  0  0  0  4           0  0  0
  -10.3819    0.2366    5.8077 C   0  0  0  0  0  4           0  0  0
  -11.3850    0.2520    4.8199 C   0  0  0  0  0  4           0  0  0
   -6.4274    0.0729    4.1420 C   0  0  0  0  0  4           0  0  0
  -10.7638    0.2477    7.1580 C   0  0  0  0  0  4           0  0  0
  -12.7380    0.2484    5.1853 C   0  0  0  0  0  4           0  0  0
  -12.1141    0.2614    7.5151 C   0  0  0  0  0  4           0  0  0
  -13.0990    0.2578    6.5312 C   0  0  0  0  0  4           0  0  0
  -11.1014    0.2537    3.3720 C   0  0  0  0  0  4           0  0  0
   -7.8799    0.1606    6.2403 C   0  0  0  0  0  4           0  0  0
   -4.2958   -0.0000    2.7122 C   0  0  0  0  0  4           0  0  0
  -11.9233    0.9767    1.2937 C   0  0  0  0  0  4           0  0  0
   -2.7874    0.0000    2.7834 C   0  0  0  0  0  4           0  0  0
   -2.1576   -0.0000    1.3919 C   0  0  0  0  0  4           0  0  0
   -0.6299   -0.0000    1.3919 C   0  0  0  0  0  4           0  0  0
    0.0000    0.0000    0.0000 C   0  0  0  0  0  4           0  0  0
    1.5274    0.0000    0.0000 C   0  0  0  0  0  4           0  0  0
    2.1573    0.0000   -1.3919 C   0  0  0  0  0  4           0  0  0
    3.6850   -0.0000   -1.3919 C   0  0  0  0  0  4           0  0  0
    4.3149    0.0000   -2.7837 C   0  0  0  0  0  4           0  0  0
    3.9406    1.2054   -3.6445 C   0  0  0  0  0  4           0  0  0
    4.5705    1.2054   -5.0364 C   0  0  0  0  0  4           0  0  0
    4.1962    2.4108   -5.8972 C   0  0  0  0  0  4           0  0  0
    4.8261    2.4108   -7.2890 C   0  0  0  0  0  4           0  0  0
    4.4517    3.6161   -8.1498 C   0  0  0  0  0  4           0  0  0
    5.0816    3.6161   -9.5417 C   0  0  0  0  0  4           0  0  0
    4.7073    4.8215  -10.4025 C   0  0  0  0  0  4           0  0  0
    5.3372    4.8215  -11.7943 C   0  0  0  0  0  4           0  0  0
    4.9237    6.0457  -12.5949 C   0  0  0  0  0  4           0  0  0
  1 17  2  0     0  0
  2 18  2  0     0  0
  3 19  2  0     0  0
  4 17  1  0     0  0
  4 20  1  0     0  0
  5  6  1  0     0  0
  5  8  1  0     0  0
  6  9  2  0     0  0
  7 10  1  0     0  0
  7 18  1  0     0  0
  8 12  2  0     0  0
  8 18  1  0     0  0
  9 12  1  0     0  0
  9 19  1  0     0  0
 10 11  2  0     0  0
 10 13  1  0     0  0
 11 14  1  0     0  0
 11 17  1  0     0  0
 13 15  2  0     0  0
 14 16  2  0     0  0
 15 16  1  0     0  0
 19 21  1  0     0  0
 21 22  1  0     0  0
 22 23  1  0     0  0
 23 24  1  0     0  0
 24 25  1  0     0  0
 25 26  1  0     0  0
 26 27  1  0     0  0
 27 28  1  0     0  0
 28 29  1  0     0  0
 29 30  1  0     0  0
 30 31  1  0     0  0
 31 32  1  0     0  0
 32 33  1  0     0  0
 33 34  1  0     0  0
 34 35  1  0     0  0
 35 36  1  0     0  0
 36 37  1  0     0  0
M  END
> <standard_type>
pIC50

> <# Confs.>
25

> <canonical_smiles>
O=C(C1=CC(C(CCCCCCCCCCCCCCCCC)=O)=NN1)NC2=C(C(OC)=O)C=CC=C2

> <standard_relation>
=

> <predicted_activity_value>
5.4089353929735005

> <actual_activity_value>
5.294136287716081

> <Compound>
32

> <publication_ID>
nan

> <standard_units>
nM

> hash
1072549932847219870

$$$$
32_
XXILIB    08252103423D 0   0.00000     0.00000

 37 38  0     1  0            999 V2000
  -10.1114   -0.2666    2.8824 O   0  0  0  0  0  2           0  0  0
   -7.9126    0.1844    7.4705 O   0  0  0  0  0  2           0  0  0
   -4.8855   -0.0000    1.6344 O   0  0  0  0  0  2           0  0  0
  -12.0855    0.9050    2.7139 O   0  0  0  0  0  2           0  0  0
   -5.3730    0.0725    6.0425 N   0  0  0  0  0  3           0  0  0
   -4.3827    0.0358    5.1392 N   0  0  0  0  0  3           0  0  0
   -9.0206    0.1842    5.4445 N   0  0  0  0  0  3           0  0  0
   -6.6333    0.1050    5.5061 C   0  0  0  0  0  4           0  0  0
   -5.0220    0.0357    3.9632 C   0  0  0  0  0  4           0  0  0
  -10.3819    0.2366    5.8077 C   0  0  0  0  0  4           0  0  0
  -11.3850    0.2520    4.8199 C   0  0  0  0  0  4           0  0  0
   -6.4274    0.0729    4.1420 C   0  0  0  0  0  4           0  0  0
  -10.7638    0.2477    7.1580 C   0  0  0  0  0  4           0  0  0
  -12.7380    0.2484    5.1853 C   0  0  0  0  0  4           0  0  0
  -12.1141    0.2614    7.5151 C   0  0  0  0  0  4           0  0  0
  -13.0990    0.2578    6.5312 C   0  0  0  0  0  4           0  0  0
  -11.1014    0.2537    3.3720 C   0  0  0  0  0  4           0  0  0
   -7.8799    0.1606    6.2403 C   0  0  0  0  0  4           0  0  0
   -4.2958   -0.0000    2.7122 C   0  0  0  0  0  4           0  0  0
  -11.9233    0.9767    1.2937 C   0  0  0  0  0  4           0  0  0
   -2.7874    0.0000    2.7834 C   0  0  0  0  0  4           0  0  0
   -2.1576   -0.0000    1.3919 C   0  0  0  0  0  4           0  0  0
   -0.6299   -0.0000    1.3919 C   0  0  0  0  0  4           0  0  0
    0.0000    0.0000    0.0000 C   0  0  0  0  0  4           0  0  0
    1.5274    0.0000    0.0000 C   0  0  0  0  0  4           0  0  0
    2.1573    0.0000   -1.3919 C   0  0  0  0  0  4           0  0  0
    3.6850    0.0000   -1.3919 C   0  0  0  0  0  4           0  0  0
    4.3149    0.0000   -2.7837 C   0  0  0  0  0  4           0  0  0
    5.8427    0.0000   -2.7837 C   0  0  0  0  0  4           0  0  0
    6.4726    0.0000   -4.1756 C   0  0  0  0  0  4           0  0  0
    6.0982    1.2054   -5.0364 C   0  0  0  0  0  4           0  0  0
    6.7281    1.2054   -6.4282 C   0  0  0  0  0  4           0  0  0
    6.3538    2.4108   -7.2890 C   0  0  0  0  0  4           0  0  0
    6.9837    2.4108   -8.6809 C   0  0  0  0  0  4           0  0  0
    6.6094    3.6161   -9.5417 C   0  0  0  0  0  4           0  0  0
    7.2393    3.6161  -10.9335 C   0  0  0  0  0  4           0  0  0
    6.8258    4.8403  -11.7341 C   0  0  0  0  0  4           0  0  0
  1 17  2  0     0  0
  2 18  2  0     0  0
  3 19  2  0     0  0
  4 17  1  0     0  0
  4 20  1  0     0  0
  5  6  1  0     0  0
  5  8  1  0     0  0
  6  9  2  0     0  0
  7 10  1  0     0  0
  7 18  1  0     0  0
  8 12  2  0     0  0
  8 18  1  0     0  0
  9 12  1  0     0  0
  9 19  1  0     0  0
 10 11  2  0     0  0
 10 13  1  0     0  0
 11 14  1  0     0  0
 11 17  1  0     0  0
 13 15  2  0     0  0
 14 16  2  0     0  0
 15 16  1  0     0  0
 19 21  1  0     0  0
 21 22  1  0     0  0
 22 23  1  0     0  0
 23 24  1  0     0  0
 24 25  1  0     0  0
 25 26  1  0     0  0
 26 27  1  0     0  0
 27 28  1  0     0  0
 28 29  1  0     0  0
 29 30  1  0     0  0
 30 31  1  0     0  0
 31 32  1  0     0  0
 32 33  1  0     0  0
 33 34  1  0     0  0
 34 35  1  0     0  0
 35 36  1  0     0  0
 36 37  1  0     0  0
M  END
> <standard_type>
pIC50

> <# Confs.>
25

> <canonical_smiles>
O=C(C1=CC(C(CCCCCCCCCCCCCCCCC)=O)=NN1)NC2=C(C(OC)=O)C=CC=C2

> <standard_relation>
=

> <predicted_activity_value>
5.4089353929735005

> <actual_activity_value>
5.294136287716081

> <Compound>
32

> <publication_ID>
nan

> <standard_units>
nM

> hash
1072549932847219870

$$$$
32_
XXILIB    08252103423D 0   0.00000     0.00000

 37 38  0     1  0            999 V2000
  -10.1114   -0.2666    2.8824 O   0  0  0  0  0  2           0  0  0
   -7.9126    0.1844    7.4705 O   0  0  0  0  0  2           0  0  0
   -4.8855   -0.0000    1.6344 O   0  0  0  0  0  2           0  0  0
  -12.0855    0.9050    2.7139 O   0  0  0  0  0  2           0  0  0
   -5.3730    0.0725    6.0425 N   0  0  0  0  0  3           0  0  0
   -4.3827    0.0358    5.1392 N   0  0  0  0  0  3           0  0  0
   -9.0206    0.1842    5.4445 N   0  0  0  0  0  3           0  0  0
   -6.6333    0.1050    5.5061 C   0  0  0  0  0  4           0  0  0
   -5.0220    0.0357    3.9632 C   0  0  0  0  0  4           0  0  0
  -10.3819    0.2366    5.8077 C   0  0  0  0  0  4           0  0  0
  -11.3850    0.2520    4.8199 C   0  0  0  0  0  4           0  0  0
   -6.4274    0.0729    4.1420 C   0  0  0  0  0  4           0  0  0
  -10.7638    0.2477    7.1580 C   0  0  0  0  0  4           0  0  0
  -12.7380    0.2484    5.1853 C   0  0  0  0  0  4           0  0  0
  -12.1141    0.2614    7.5151 C   0  0  0  0  0  4           0  0  0
  -13.0990    0.2578    6.5312 C   0  0  0  0  0  4           0  0  0
  -11.1014    0.2537    3.3720 C   0  0  0  0  0  4           0  0  0
   -7.8799    0.1606    6.2403 C   0  0  0  0  0  4           0  0  0
   -4.2958   -0.0000    2.7122 C   0  0  0  0  0  4           0  0  0
  -11.9233    0.9767    1.2937 C   0  0  0  0  0  4           0  0  0
   -2.7874    0.0000    2.7834 C   0  0  0  0  0  4           0  0  0
   -2.1576   -0.0000    1.3919 C   0  0  0  0  0  4           0  0  0
   -0.6299   -0.0000    1.3919 C   0  0  0  0  0  4           0  0  0
    0.0000    0.0000    0.0000 C   0  0  0  0  0  4           0  0  0
    1.5274   -0.0000    0.0000 C   0  0  0  0  0  4           0  0  0
    2.1573    0.0000   -1.3919 C   0  0  0  0  0  4           0  0  0
    3.6850    0.0000   -1.3919 C   0  0  0  0  0  4           0  0  0
    4.3149    0.0000   -2.7837 C   0  0  0  0  0  4           0  0  0
    5.8427   -0.0000   -2.7837 C   0  0  0  0  0  4           0  0  0
    6.4726   -1.2054   -2.0878 C   0  0  0  0  0  4           0  0  0
    8.0003   -1.2054   -2.0878 C   0  0  0  0  0  4           0  0  0
    8.6302   -2.4108   -1.3919 C   0  0  0  0  0  4           0  0  0
   10.1580   -2.4108   -1.3919 C   0  0  0  0  0  4           0  0  0
   10.7879   -3.6161   -0.6959 C   0  0  0  0  0  4           0  0  0
   12.3156   -3.6161   -0.6959 C   0  0  0  0  0  4           0  0  0
   12.9455   -4.8215   -0.0000 C   0  0  0  0  0  4           0  0  0
   14.4637   -4.7578   -0.0368 C   0  0  0  0  0  4           0  0  0
  1 17  2  0     0  0
  2 18  2  0     0  0
  3 19  2  0     0  0
  4 17  1  0     0  0
  4 20  1  0     0  0
  5  6  1  0     0  0
  5  8  1  0     0  0
  6  9  2  0     0  0
  7 10  1  0     0  0
  7 18  1  0     0  0
  8 12  2  0     0  0
  8 18  1  0     0  0
  9 12  1  0     0  0
  9 19  1  0     0  0
 10 11  2  0     0  0
 10 13  1  0     0  0
 11 14  1  0     0  0
 11 17  1  0     0  0
 13 15  2  0     0  0
 14 16  2  0     0  0
 15 16  1  0     0  0
 19 21  1  0     0  0
 21 22  1  0     0  0
 22 23  1  0     0  0
 23 24  1  0     0  0
 24 25  1  0     0  0
 25 26  1  0     0  0
 26 27  1  0     0  0
 27 28  1  0     0  0
 28 29  1  0     0  0
 29 30  1  0     0  0
 30 31  1  0     0  0
 31 32  1  0     0  0
 32 33  1  0     0  0
 33 34  1  0     0  0
 34 35  1  0     0  0
 35 36  1  0     0  0
 36 37  1  0     0  0
M  END
> <standard_type>
pIC50

> <# Confs.>
25

> <canonical_smiles>
O=C(C1=CC(C(CCCCCCCCCCCCCCCCC)=O)=NN1)NC2=C(C(OC)=O)C=CC=C2

> <standard_relation>
=

> <predicted_activity_value>
5.4089353929735005

> <actual_activity_value>
5.294136287716081

> <Compound>
32

> <publication_ID>
nan

> <standard_units>
nM

> hash
1072549932847219870

$$$$
32_
XXILIB    08252103423D 0   0.00000     0.00000

 37 38  0     1  0            999 V2000
  -10.1114   -0.2666    2.8824 O   0  0  0  0  0  2           0  0  0
   -7.9126    0.1844    7.4705 O   0  0  0  0  0  2           0  0  0
   -4.8855   -0.0000    1.6344 O   0  0  0  0  0  2           0  0  0
  -12.0855    0.9050    2.7139 O   0  0  0  0  0  2           0  0  0
   -5.3730    0.0725    6.0425 N   0  0  0  0  0  3           0  0  0
   -4.3827    0.0358    5.1392 N   0  0  0  0  0  3           0  0  0
   -9.0206    0.1842    5.4445 N   0  0  0  0  0  3           0  0  0
   -6.6333    0.1050    5.5061 C   0  0  0  0  0  4           0  0  0
   -5.0220    0.0357    3.9632 C   0  0  0  0  0  4           0  0  0
  -10.3819    0.2366    5.8077 C   0  0  0  0  0  4           0  0  0
  -11.3850    0.2520    4.8199 C   0  0  0  0  0  4           0  0  0
   -6.4274    0.0729    4.1420 C   0  0  0  0  0  4           0  0  0
  -10.7638    0.2477    7.1580 C   0  0  0  0  0  4           0  0  0
  -12.7380    0.2484    5.1853 C   0  0  0  0  0  4           0  0  0
  -12.1141    0.2614    7.5151 C   0  0  0  0  0  4           0  0  0
  -13.0990    0.2578    6.5312 C   0  0  0  0  0  4           0  0  0
  -11.1014    0.2537    3.3720 C   0  0  0  0  0  4           0  0  0
   -7.8799    0.1606    6.2403 C   0  0  0  0  0  4           0  0  0
   -4.2958   -0.0000    2.7122 C   0  0  0  0  0  4           0  0  0
  -11.9233    0.9767    1.2937 C   0  0  0  0  0  4           0  0  0
   -2.7874    0.0000    2.7834 C   0  0  0  0  0  4           0  0  0
   -2.1576   -0.0000    1.3919 C   0  0  0  0  0  4           0  0  0
   -0.6299   -0.0000    1.3919 C   0  0  0  0  0  4           0  0  0
    0.0000    0.0000    0.0000 C   0  0  0  0  0  4           0  0  0
    1.5274    0.0000   -0.0000 C   0  0  0  0  0  4           0  0  0
    2.1573    0.0000   -1.3919 C   0  0  0  0  0  4           0  0  0
    3.6850   -0.0000   -1.3919 C   0  0  0  0  0  4           0  0  0
    4.3149    0.0000   -2.7837 C   0  0  0  0  0  4           0  0  0
    5.8427   -0.0000   -2.7837 C   0  0  0  0  0  4           0  0  0
    6.4726   -0.0000   -4.1756 C   0  0  0  0  0  4           0  0  0
    8.0003   -0.0000   -4.1756 C   0  0  0  0  0  4           0  0  0
    8.6302   -1.2054   -3.4796 C   0  0  0  0  0  4           0  0  0
   10.1580   -1.2054   -3.4796 C   0  0  0  0  0  4           0  0  0
   10.7879   -2.4108   -2.7837 C   0  0  0  0  0  4           0  0  0
   12.3156   -2.4108   -2.7837 C   0  0  0  0  0  4           0  0  0
   12.9455   -3.6161   -2.0878 C   0  0  0  0  0  4           0  0  0
   14.4637   -3.5524   -2.1246 C   0  0  0  0  0  4           0  0  0
  1 17  2  0     0  0
  2 18  2  0     0  0
  3 19  2  0     0  0
  4 17  1  0     0  0
  4 20  1  0     0  0
  5  6  1  0     0  0
  5  8  1  0     0  0
  6  9  2  0     0  0
  7 10  1  0     0  0
  7 18  1  0     0  0
  8 12  2  0     0  0
  8 18  1  0     0  0
  9 12  1  0     0  0
  9 19  1  0     0  0
 10 11  2  0     0  0
 10 13  1  0     0  0
 11 14  1  0     0  0
 11 17  1  0     0  0
 13 15  2  0     0  0
 14 16  2  0     0  0
 15 16  1  0     0  0
 19 21  1  0     0  0
 21 22  1  0     0  0
 22 23  1  0     0  0
 23 24  1  0     0  0
 24 25  1  0     0  0
 25 26  1  0     0  0
 26 27  1  0     0  0
 27 28  1  0     0  0
 28 29  1  0     0  0
 29 30  1  0     0  0
 30 31  1  0     0  0
 31 32  1  0     0  0
 32 33  1  0     0  0
 33 34  1  0     0  0
 34 35  1  0     0  0
 35 36  1  0     0  0
 36 37  1  0     0  0
M  END
> <standard_type>
pIC50

> <# Confs.>
25

> <canonical_smiles>
O=C(C1=CC(C(CCCCCCCCCCCCCCCCC)=O)=NN1)NC2=C(C(OC)=O)C=CC=C2

> <standard_relation>
=

> <predicted_activity_value>
5.4089353929735005

> <actual_activity_value>
5.294136287716081

> <Compound>
32

> <publication_ID>
nan

> <standard_units>
nM

> hash
1072549932847219870

$$$$
32_
XXILIB    08252103423D 0   0.00000     0.00000

 37 38  0     1  0            999 V2000
  -10.1114   -0.2666    2.8824 O   0  0  0  0  0  2           0  0  0
   -7.9126    0.1844    7.4705 O   0  0  0  0  0  2           0  0  0
   -4.8855   -0.0000    1.6344 O   0  0  0  0  0  2           0  0  0
  -12.0855    0.9050    2.7139 O   0  0  0  0  0  2           0  0  0
   -5.3730    0.0725    6.0425 N   0  0  0  0  0  3           0  0  0
   -4.3827    0.0358    5.1392 N   0  0  0  0  0  3           0  0  0
   -9.0206    0.1842    5.4445 N   0  0  0  0  0  3           0  0  0
   -6.6333    0.1050    5.5061 C   0  0  0  0  0  4           0  0  0
   -5.0220    0.0357    3.9632 C   0  0  0  0  0  4           0  0  0
  -10.3819    0.2366    5.8077 C   0  0  0  0  0  4           0  0  0
  -11.3850    0.2520    4.8199 C   0  0  0  0  0  4           0  0  0
   -6.4274    0.0729    4.1420 C   0  0  0  0  0  4           0  0  0
  -10.7638    0.2477    7.1580 C   0  0  0  0  0  4           0  0  0
  -12.7380    0.2484    5.1853 C   0  0  0  0  0  4           0  0  0
  -12.1141    0.2614    7.5151 C   0  0  0  0  0  4           0  0  0
  -13.0990    0.2578    6.5312 C   0  0  0  0  0  4           0  0  0
  -11.1014    0.2537    3.3720 C   0  0  0  0  0  4           0  0  0
   -7.8799    0.1606    6.2403 C   0  0  0  0  0  4           0  0  0
   -4.2958   -0.0000    2.7122 C   0  0  0  0  0  4           0  0  0
  -11.9233    0.9767    1.2937 C   0  0  0  0  0  4           0  0  0
   -2.7874    0.0000    2.7834 C   0  0  0  0  0  4           0  0  0
   -2.1576   -0.0000    1.3919 C   0  0  0  0  0  4           0  0  0
   -0.6299   -0.0000    1.3919 C   0  0  0  0  0  4           0  0  0
    0.0000    0.0000    0.0000 C   0  0  0  0  0  4           0  0  0
    1.5274    0.0000    0.0000 C   0  0  0  0  0  4           0  0  0
    2.1573    0.0000   -1.3919 C   0  0  0  0  0  4           0  0  0
    3.6850    0.0000   -1.3919 C   0  0  0  0  0  4           0  0  0
    4.3149    0.0000   -2.7837 C   0  0  0  0  0  4           0  0  0
    5.8427    0.0000   -2.7837 C   0  0  0  0  0  4           0  0  0
    6.4726    0.0000   -4.1756 C   0  0  0  0  0  4           0  0  0
    8.0003    0.0000   -4.1756 C   0  0  0  0  0  4           0  0  0
    8.6302    0.0000   -5.5674 C   0  0  0  0  0  4           0  0  0
    8.2559    1.2054   -6.4282 C   0  0  0  0  0  4           0  0  0
    8.8858    1.2054   -7.8201 C   0  0  0  0  0  4           0  0  0
    8.5115    2.4108   -8.6809 C   0  0  0  0  0  4           0  0  0
    9.1414    2.4108  -10.0727 C   0  0  0  0  0  4           0  0  0
    8.7279    3.6349  -10.8733 C   0  0  0  0  0  4           0  0  0
  1 17  2  0     0  0
  2 18  2  0     0  0
  3 19  2  0     0  0
  4 17  1  0     0  0
  4 20  1  0     0  0
  5  6  1  0     0  0
  5  8  1  0     0  0
  6  9  2  0     0  0
  7 10  1  0     0  0
  7 18  1  0     0  0
  8 12  2  0     0  0
  8 18  1  0     0  0
  9 12  1  0     0  0
  9 19  1  0     0  0
 10 11  2  0     0  0
 10 13  1  0     0  0
 11 14  1  0     0  0
 11 17  1  0     0  0
 13 15  2  0     0  0
 14 16  2  0     0  0
 15 16  1  0     0  0
 19 21  1  0     0  0
 21 22  1  0     0  0
 22 23  1  0     0  0
 23 24  1  0     0  0
 24 25  1  0     0  0
 25 26  1  0     0  0
 26 27  1  0     0  0
 27 28  1  0     0  0
 28 29  1  0     0  0
 29 30  1  0     0  0
 30 31  1  0     0  0
 31 32  1  0     0  0
 32 33  1  0     0  0
 33 34  1  0     0  0
 34 35  1  0     0  0
 35 36  1  0     0  0
 36 37  1  0     0  0
M  END
> <standard_type>
pIC50

> <# Confs.>
25

> <canonical_smiles>
O=C(C1=CC(C(CCCCCCCCCCCCCCCCC)=O)=NN1)NC2=C(C(OC)=O)C=CC=C2

> <standard_relation>
=

> <predicted_activity_value>
5.4089353929735005

> <actual_activity_value>
5.294136287716081

> <Compound>
32

> <publication_ID>
nan

> <standard_units>
nM

> hash
1072549932847219870

$$$$
32_
XXILIB    08252103423D 0   0.00000     0.00000

 37 38  0     1  0            999 V2000
  -10.1114   -0.2666    2.8824 O   0  0  0  0  0  2           0  0  0
   -7.9126    0.1844    7.4705 O   0  0  0  0  0  2           0  0  0
   -4.8855   -0.0000    1.6344 O   0  0  0  0  0  2           0  0  0
  -12.0855    0.9050    2.7139 O   0  0  0  0  0  2           0  0  0
   -5.3730    0.0725    6.0425 N   0  0  0  0  0  3           0  0  0
   -4.3827    0.0358    5.1392 N   0  0  0  0  0  3           0  0  0
   -9.0206    0.1842    5.4445 N   0  0  0  0  0  3           0  0  0
   -6.6333    0.1050    5.5061 C   0  0  0  0  0  4           0  0  0
   -5.0220    0.0357    3.9632 C   0  0  0  0  0  4           0  0  0
  -10.3819    0.2366    5.8077 C   0  0  0  0  0  4           0  0  0
  -11.3850    0.2520    4.8199 C   0  0  0  0  0  4           0  0  0
   -6.4274    0.0729    4.1420 C   0  0  0  0  0  4           0  0  0
  -10.7638    0.2477    7.1580 C   0  0  0  0  0  4           0  0  0
  -12.7380    0.2484    5.1853 C   0  0  0  0  0  4           0  0  0
  -12.1141    0.2614    7.5151 C   0  0  0  0  0  4           0  0  0
  -13.0990    0.2578    6.5312 C   0  0  0  0  0  4           0  0  0
  -11.1014    0.2537    3.3720 C   0  0  0  0  0  4           0  0  0
   -7.8799    0.1606    6.2403 C   0  0  0  0  0  4           0  0  0
   -4.2958   -0.0000    2.7122 C   0  0  0  0  0  4           0  0  0
  -11.9233    0.9767    1.2937 C   0  0  0  0  0  4           0  0  0
   -2.7874    0.0000    2.7834 C   0  0  0  0  0  4           0  0  0
   -2.1576   -0.0000    1.3919 C   0  0  0  0  0  4           0  0  0
   -0.6299   -0.0000    1.3919 C   0  0  0  0  0  4           0  0  0
    0.0000    0.0000    0.0000 C   0  0  0  0  0  4           0  0  0
    1.5274    0.0000    0.0000 C   0  0  0  0  0  4           0  0  0
    2.1573    0.0000   -1.3919 C   0  0  0  0  0  4           0  0  0
    3.6850    0.0000   -1.3919 C   0  0  0  0  0  4           0  0  0
    4.3149    0.0000   -2.7837 C   0  0  0  0  0  4           0  0  0
    5.8427    0.0000   -2.7837 C   0  0  0  0  0  4           0  0  0
    6.4726    0.0000   -4.1756 C   0  0  0  0  0  4           0  0  0
    8.0003    0.0000   -4.1756 C   0  0  0  0  0  4           0  0  0
    8.6302    0.0000   -5.5674 C   0  0  0  0  0  4           0  0  0
   10.1580   -0.0000   -5.5674 C   0  0  0  0  0  4           0  0  0
   10.7879   -1.2054   -4.8715 C   0  0  0  0  0  4           0  0  0
   12.3156   -1.2054   -4.8715 C   0  0  0  0  0  4           0  0  0
   12.9455   -2.4108   -4.1756 C   0  0  0  0  0  4           0  0  0
   14.4637   -2.3470   -4.2124 C   0  0  0  0  0  4           0  0  0
  1 17  2  0     0  0
  2 18  2  0     0  0
  3 19  2  0     0  0
  4 17  1  0     0  0
  4 20  1  0     0  0
  5  6  1  0     0  0
  5  8  1  0     0  0
  6  9  2  0     0  0
  7 10  1  0     0  0
  7 18  1  0     0  0
  8 12  2  0     0  0
  8 18  1  0     0  0
  9 12  1  0     0  0
  9 19  1  0     0  0
 10 11  2  0     0  0
 10 13  1  0     0  0
 11 14  1  0     0  0
 11 17  1  0     0  0
 13 15  2  0     0  0
 14 16  2  0     0  0
 15 16  1  0     0  0
 19 21  1  0     0  0
 21 22  1  0     0  0
 22 23  1  0     0  0
 23 24  1  0     0  0
 24 25  1  0     0  0
 25 26  1  0     0  0
 26 27  1  0     0  0
 27 28  1  0     0  0
 28 29  1  0     0  0
 29 30  1  0     0  0
 30 31  1  0     0  0
 31 32  1  0     0  0
 32 33  1  0     0  0
 33 34  1  0     0  0
 34 35  1  0     0  0
 35 36  1  0     0  0
 36 37  1  0     0  0
M  END
> <standard_type>
pIC50

> <# Confs.>
25

> <canonical_smiles>
O=C(C1=CC(C(CCCCCCCCCCCCCCCCC)=O)=NN1)NC2=C(C(OC)=O)C=CC=C2

> <standard_relation>
=

> <predicted_activity_value>
5.4089353929735005

> <actual_activity_value>
5.294136287716081

> <Compound>
32

> <publication_ID>
nan

> <standard_units>
nM

> hash
1072549932847219870

$$$$
32_
XXILIB    08252103423D 0   0.00000     0.00000

 37 38  0     1  0            999 V2000
  -10.1114   -0.2666    2.8824 O   0  0  0  0  0  2           0  0  0
   -7.9126    0.1844    7.4705 O   0  0  0  0  0  2           0  0  0
   -4.8855   -0.0000    1.6344 O   0  0  0  0  0  2           0  0  0
  -12.0855    0.9050    2.7139 O   0  0  0  0  0  2           0  0  0
   -5.3730    0.0725    6.0425 N   0  0  0  0  0  3           0  0  0
   -4.3827    0.0358    5.1392 N   0  0  0  0  0  3           0  0  0
   -9.0206    0.1842    5.4445 N   0  0  0  0  0  3           0  0  0
   -6.6333    0.1050    5.5061 C   0  0  0  0  0  4           0  0  0
   -5.0220    0.0357    3.9632 C   0  0  0  0  0  4           0  0  0
  -10.3819    0.2366    5.8077 C   0  0  0  0  0  4           0  0  0
  -11.3850    0.2520    4.8199 C   0  0  0  0  0  4           0  0  0
   -6.4274    0.0729    4.1420 C   0  0  0  0  0  4           0  0  0
  -10.7638    0.2477    7.1580 C   0  0  0  0  0  4           0  0  0
  -12.7380    0.2484    5.1853 C   0  0  0  0  0  4           0  0  0
  -12.1141    0.2614    7.5151 C   0  0  0  0  0  4           0  0  0
  -13.0990    0.2578    6.5312 C   0  0  0  0  0  4           0  0  0
  -11.1014    0.2537    3.3720 C   0  0  0  0  0  4           0  0  0
   -7.8799    0.1606    6.2403 C   0  0  0  0  0  4           0  0  0
   -4.2958   -0.0000    2.7122 C   0  0  0  0  0  4           0  0  0
  -11.9233    0.9767    1.2937 C   0  0  0  0  0  4           0  0  0
   -2.7874    0.0000    2.7834 C   0  0  0  0  0  4           0  0  0
   -2.1576   -0.0000    1.3919 C   0  0  0  0  0  4           0  0  0
   -0.6299   -0.0000    1.3919 C   0  0  0  0  0  4           0  0  0
    0.0000    0.0000    0.0000 C   0  0  0  0  0  4           0  0  0
    1.5274    0.0000    0.0000 C   0  0  0  0  0  4           0  0  0
    2.1573    0.0000   -1.3919 C   0  0  0  0  0  4           0  0  0
    3.6850    0.0000   -1.3919 C   0  0  0  0  0  4           0  0  0
    4.3149    0.0000   -2.7837 C   0  0  0  0  0  4           0  0  0
    5.8427    0.0000   -2.7837 C   0  0  0  0  0  4           0  0  0
    6.4726    0.0000   -4.1756 C   0  0  0  0  0  4           0  0  0
    8.0003    0.0000   -4.1756 C   0  0  0  0  0  4           0  0  0
    8.6302    0.0000   -5.5674 C   0  0  0  0  0  4           0  0  0
   10.1580    0.0000   -5.5674 C   0  0  0  0  0  4           0  0  0
   10.7879    0.0000   -6.9593 C   0  0  0  0  0  4           0  0  0
   10.4135    1.2054   -7.8201 C   0  0  0  0  0  4           0  0  0
   11.0434    1.2054   -9.2119 C   0  0  0  0  0  4           0  0  0
   10.6300    2.4295  -10.0125 C   0  0  0  0  0  4           0  0  0
  1 17  2  0     0  0
  2 18  2  0     0  0
  3 19  2  0     0  0
  4 17  1  0     0  0
  4 20  1  0     0  0
  5  6  1  0     0  0
  5  8  1  0     0  0
  6  9  2  0     0  0
  7 10  1  0     0  0
  7 18  1  0     0  0
  8 12  2  0     0  0
  8 18  1  0     0  0
  9 12  1  0     0  0
  9 19  1  0     0  0
 10 11  2  0     0  0
 10 13  1  0     0  0
 11 14  1  0     0  0
 11 17  1  0     0  0
 13 15  2  0     0  0
 14 16  2  0     0  0
 15 16  1  0     0  0
 19 21  1  0     0  0
 21 22  1  0     0  0
 22 23  1  0     0  0
 23 24  1  0     0  0
 24 25  1  0     0  0
 25 26  1  0     0  0
 26 27  1  0     0  0
 27 28  1  0     0  0
 28 29  1  0     0  0
 29 30  1  0     0  0
 30 31  1  0     0  0
 31 32  1  0     0  0
 32 33  1  0     0  0
 33 34  1  0     0  0
 34 35  1  0     0  0
 35 36  1  0     0  0
 36 37  1  0     0  0
M  END
> <standard_type>
pIC50

> <# Confs.>
25

> <canonical_smiles>
O=C(C1=CC(C(CCCCCCCCCCCCCCCCC)=O)=NN1)NC2=C(C(OC)=O)C=CC=C2

> <standard_relation>
=

> <predicted_activity_value>
5.4089353929735005

> <actual_activity_value>
5.294136287716081

> <Compound>
32

> <publication_ID>
nan

> <standard_units>
nM

> hash
1072549932847219870

$$$$
32_
XXILIB    08252103423D 0   0.00000     0.00000

 37 38  0     1  0            999 V2000
  -10.1114   -0.2666    2.8824 O   0  0  0  0  0  2           0  0  0
   -7.9126    0.1844    7.4705 O   0  0  0  0  0  2           0  0  0
   -4.8855   -0.0000    1.6344 O   0  0  0  0  0  2           0  0  0
  -12.0855    0.9050    2.7139 O   0  0  0  0  0  2           0  0  0
   -5.3730    0.0725    6.0425 N   0  0  0  0  0  3           0  0  0
   -4.3827    0.0358    5.1392 N   0  0  0  0  0  3           0  0  0
   -9.0206    0.1842    5.4445 N   0  0  0  0  0  3           0  0  0
   -6.6333    0.1050    5.5061 C   0  0  0  0  0  4           0  0  0
   -5.0220    0.0357    3.9632 C   0  0  0  0  0  4           0  0  0
  -10.3819    0.2366    5.8077 C   0  0  0  0  0  4           0  0  0
  -11.3850    0.2520    4.8199 C   0  0  0  0  0  4           0  0  0
   -6.4274    0.0729    4.1420 C   0  0  0  0  0  4           0  0  0
  -10.7638    0.2477    7.1580 C   0  0  0  0  0  4           0  0  0
  -12.7380    0.2484    5.1853 C   0  0  0  0  0  4           0  0  0
  -12.1141    0.2614    7.5151 C   0  0  0  0  0  4           0  0  0
  -13.0990    0.2578    6.5312 C   0  0  0  0  0  4           0  0  0
  -11.1014    0.2537    3.3720 C   0  0  0  0  0  4           0  0  0
   -7.8799    0.1606    6.2403 C   0  0  0  0  0  4           0  0  0
   -4.2958   -0.0000    2.7122 C   0  0  0  0  0  4           0  0  0
  -11.9233    0.9767    1.2937 C   0  0  0  0  0  4           0  0  0
   -2.7874    0.0000    2.7834 C   0  0  0  0  0  4           0  0  0
   -2.1576   -0.0000    1.3919 C   0  0  0  0  0  4           0  0  0
   -0.6299   -0.0000    1.3919 C   0  0  0  0  0  4           0  0  0
    0.0000    0.0000    0.0000 C   0  0  0  0  0  4           0  0  0
    1.5274    0.0000    0.0000 C   0  0  0  0  0  4           0  0  0
    2.1573    1.2054    0.6959 C   0  0  0  0  0  4           0  0  0
    3.6850    1.2054    0.6959 C   0  0  0  0  0  4           0  0  0
    4.3149    2.4108    1.3919 C   0  0  0  0  0  4           0  0  0
    5.8427    2.4108    1.3919 C   0  0  0  0  0  4           0  0  0
    6.4726    3.6161    2.0878 C   0  0  0  0  0  4           0  0  0
    8.0003    3.6161    2.0878 C   0  0  0  0  0  4           0  0  0
    8.6302    4.8215    2.7837 C   0  0  0  0  0  4           0  0  0
   10.1580    4.8215    2.7837 C   0  0  0  0  0  4           0  0  0
   10.7879    6.0269    3.4796 C   0  0  0  0  0  4           0  0  0
   12.3156    6.0269    3.4796 C   0  0  0  0  0  4           0  0  0
   12.9455    7.2323    4.1756 C   0  0  0  0  0  4           0  0  0
   14.4637    7.1685    4.1388 C   0  0  0  0  0  4           0  0  0
  1 17  2  0     0  0
  2 18  2  0     0  0
  3 19  2  0     0  0
  4 17  1  0     0  0
  4 20  1  0     0  0
  5  6  1  0     0  0
  5  8  1  0     0  0
  6  9  2  0     0  0
  7 10  1  0     0  0
  7 18  1  0     0  0
  8 12  2  0     0  0
  8 18  1  0     0  0
  9 12  1  0     0  0
  9 19  1  0     0  0
 10 11  2  0     0  0
 10 13  1  0     0  0
 11 14  1  0     0  0
 11 17  1  0     0  0
 13 15  2  0     0  0
 14 16  2  0     0  0
 15 16  1  0     0  0
 19 21  1  0     0  0
 21 22  1  0     0  0
 22 23  1  0     0  0
 23 24  1  0     0  0
 24 25  1  0     0  0
 25 26  1  0     0  0
 26 27  1  0     0  0
 27 28  1  0     0  0
 28 29  1  0     0  0
 29 30  1  0     0  0
 30 31  1  0     0  0
 31 32  1  0     0  0
 32 33  1  0     0  0
 33 34  1  0     0  0
 34 35  1  0     0  0
 35 36  1  0     0  0
 36 37  1  0     0  0
M  END
> <standard_type>
pIC50

> <# Confs.>
25

> <canonical_smiles>
O=C(C1=CC(C(CCCCCCCCCCCCCCCCC)=O)=NN1)NC2=C(C(OC)=O)C=CC=C2

> <standard_relation>
=

> <predicted_activity_value>
5.4089353929735005

> <actual_activity_value>
5.294136287716081

> <Compound>
32

> <publication_ID>
nan

> <standard_units>
nM

> hash
1072549932847219870

$$$$
32_
XXILIB    08252103423D 0   0.00000     0.00000

 37 38  0     1  0            999 V2000
  -10.1114   -0.2666    2.8824 O   0  0  0  0  0  2           0  0  0
   -7.9126    0.1844    7.4705 O   0  0  0  0  0  2           0  0  0
   -4.8855   -0.0000    1.6344 O   0  0  0  0  0  2           0  0  0
  -12.0855    0.9050    2.7139 O   0  0  0  0  0  2           0  0  0
   -5.3730    0.0725    6.0425 N   0  0  0  0  0  3           0  0  0
   -4.3827    0.0358    5.1392 N   0  0  0  0  0  3           0  0  0
   -9.0206    0.1842    5.4445 N   0  0  0  0  0  3           0  0  0
   -6.6333    0.1050    5.5061 C   0  0  0  0  0  4           0  0  0
   -5.0220    0.0357    3.9632 C   0  0  0  0  0  4           0  0  0
  -10.3819    0.2366    5.8077 C   0  0  0  0  0  4           0  0  0
  -11.3850    0.2520    4.8199 C   0  0  0  0  0  4           0  0  0
   -6.4274    0.0729    4.1420 C   0  0  0  0  0  4           0  0  0
  -10.7638    0.2477    7.1580 C   0  0  0  0  0  4           0  0  0
  -12.7380    0.2484    5.1853 C   0  0  0  0  0  4           0  0  0
  -12.1141    0.2614    7.5151 C   0  0  0  0  0  4           0  0  0
  -13.0990    0.2578    6.5312 C   0  0  0  0  0  4           0  0  0
  -11.1014    0.2537    3.3720 C   0  0  0  0  0  4           0  0  0
   -7.8799    0.1606    6.2403 C   0  0  0  0  0  4           0  0  0
   -4.2958   -0.0000    2.7122 C   0  0  0  0  0  4           0  0  0
  -11.9233    0.9767    1.2937 C   0  0  0  0  0  4           0  0  0
   -2.7874    0.0000    2.7834 C   0  0  0  0  0  4           0  0  0
   -2.1576   -0.0000    1.3919 C   0  0  0  0  0  4           0  0  0
   -0.6299   -0.0000    1.3919 C   0  0  0  0  0  4           0  0  0
    0.0000    0.0000    0.0000 C   0  0  0  0  0  4           0  0  0
    1.5274   -0.0000    0.0000 C   0  0  0  0  0  4           0  0  0
    2.1573    0.0000   -1.3919 C   0  0  0  0  0  4           0  0  0
    1.7829   -1.2054   -2.2527 C   0  0  0  0  0  4           0  0  0
    2.4128   -1.2054   -3.6445 C   0  0  0  0  0  4           0  0  0
    2.0385   -2.4108   -4.5053 C   0  0  0  0  0  4           0  0  0
    2.6684   -2.4108   -5.8972 C   0  0  0  0  0  4           0  0  0
    2.2941   -3.6161   -6.7579 C   0  0  0  0  0  4           0  0  0
    2.9240   -3.6161   -8.1498 C   0  0  0  0  0  4           0  0  0
    2.5497   -4.8215   -9.0106 C   0  0  0  0  0  4           0  0  0
    3.1796   -4.8215  -10.4025 C   0  0  0  0  0  4           0  0  0
    2.8052   -6.0269  -11.2632 C   0  0  0  0  0  4           0  0  0
    3.4351   -6.0269  -12.6551 C   0  0  0  0  0  4           0  0  0
    3.0217   -7.2511  -13.4557 C   0  0  0  0  0  4           0  0  0
  1 17  2  0     0  0
  2 18  2  0     0  0
  3 19  2  0     0  0
  4 17  1  0     0  0
  4 20  1  0     0  0
  5  6  1  0     0  0
  5  8  1  0     0  0
  6  9  2  0     0  0
  7 10  1  0     0  0
  7 18  1  0     0  0
  8 12  2  0     0  0
  8 18  1  0     0  0
  9 12  1  0     0  0
  9 19  1  0     0  0
 10 11  2  0     0  0
 10 13  1  0     0  0
 11 14  1  0     0  0
 11 17  1  0     0  0
 13 15  2  0     0  0
 14 16  2  0     0  0
 15 16  1  0     0  0
 19 21  1  0     0  0
 21 22  1  0     0  0
 22 23  1  0     0  0
 23 24  1  0     0  0
 24 25  1  0     0  0
 25 26  1  0     0  0
 26 27  1  0     0  0
 27 28  1  0     0  0
 28 29  1  0     0  0
 29 30  1  0     0  0
 30 31  1  0     0  0
 31 32  1  0     0  0
 32 33  1  0     0  0
 33 34  1  0     0  0
 34 35  1  0     0  0
 35 36  1  0     0  0
 36 37  1  0     0  0
M  END
> <standard_type>
pIC50

> <# Confs.>
25

> <canonical_smiles>
O=C(C1=CC(C(CCCCCCCCCCCCCCCCC)=O)=NN1)NC2=C(C(OC)=O)C=CC=C2

> <standard_relation>
=

> <predicted_activity_value>
5.4089353929735005

> <actual_activity_value>
5.294136287716081

> <Compound>
32

> <publication_ID>
nan

> <standard_units>
nM

> hash
1072549932847219870

$$$$
32_
XXILIB    08252103423D 0   0.00000     0.00000

 37 38  0     1  0            999 V2000
  -10.1114   -0.2666    2.8824 O   0  0  0  0  0  2           0  0  0
   -7.9126    0.1844    7.4705 O   0  0  0  0  0  2           0  0  0
   -4.8855   -0.0000    1.6344 O   0  0  0  0  0  2           0  0  0
  -12.0855    0.9050    2.7139 O   0  0  0  0  0  2           0  0  0
   -5.3730    0.0725    6.0425 N   0  0  0  0  0  3           0  0  0
   -4.3827    0.0358    5.1392 N   0  0  0  0  0  3           0  0  0
   -9.0206    0.1842    5.4445 N   0  0  0  0  0  3           0  0  0
   -6.6333    0.1050    5.5061 C   0  0  0  0  0  4           0  0  0
   -5.0220    0.0357    3.9632 C   0  0  0  0  0  4           0  0  0
  -10.3819    0.2366    5.8077 C   0  0  0  0  0  4           0  0  0
  -11.3850    0.2520    4.8199 C   0  0  0  0  0  4           0  0  0
   -6.4274    0.0729    4.1420 C   0  0  0  0  0  4           0  0  0
  -10.7638    0.2477    7.1580 C   0  0  0  0  0  4           0  0  0
  -12.7380    0.2484    5.1853 C   0  0  0  0  0  4           0  0  0
  -12.1141    0.2614    7.5151 C   0  0  0  0  0  4           0  0  0
  -13.0990    0.2578    6.5312 C   0  0  0  0  0  4           0  0  0
  -11.1014    0.2537    3.3720 C   0  0  0  0  0  4           0  0  0
   -7.8799    0.1606    6.2403 C   0  0  0  0  0  4           0  0  0
   -4.2958   -0.0000    2.7122 C   0  0  0  0  0  4           0  0  0
  -11.9233    0.9767    1.2937 C   0  0  0  0  0  4           0  0  0
   -2.7874    0.0000    2.7834 C   0  0  0  0  0  4           0  0  0
   -2.1576   -0.0000    1.3919 C   0  0  0  0  0  4           0  0  0
   -0.6299   -0.0000    1.3919 C   0  0  0  0  0  4           0  0  0
    0.0000    0.0000    0.0000 C   0  0  0  0  0  4           0  0  0
    1.5274    0.0000    0.0000 C   0  0  0  0  0  4           0  0  0
    2.1573    0.0000   -1.3919 C   0  0  0  0  0  4           0  0  0
    3.6850   -0.0000   -1.3919 C   0  0  0  0  0  4           0  0  0
    4.3149    1.2054   -0.6959 C   0  0  0  0  0  4           0  0  0
    5.8427    1.2054   -0.6959 C   0  0  0  0  0  4           0  0  0
    6.4726    2.4108    0.0000 C   0  0  0  0  0  4           0  0  0
    8.0003    2.4108    0.0000 C   0  0  0  0  0  4           0  0  0
    8.6302    3.6161    0.6959 C   0  0  0  0  0  4           0  0  0
   10.1580    3.6161    0.6959 C   0  0  0  0  0  4           0  0  0
   10.7879    4.8215    1.3919 C   0  0  0  0  0  4           0  0  0
   12.3156    4.8215    1.3919 C   0  0  0  0  0  4           0  0  0
   12.9455    6.0269    2.0878 C   0  0  0  0  0  4           0  0  0
   14.4637    5.9631    2.0510 C   0  0  0  0  0  4           0  0  0
  1 17  2  0     0  0
  2 18  2  0     0  0
  3 19  2  0     0  0
  4 17  1  0     0  0
  4 20  1  0     0  0
  5  6  1  0     0  0
  5  8  1  0     0  0
  6  9  2  0     0  0
  7 10  1  0     0  0
  7 18  1  0     0  0
  8 12  2  0     0  0
  8 18  1  0     0  0
  9 12  1  0     0  0
  9 19  1  0     0  0
 10 11  2  0     0  0
 10 13  1  0     0  0
 11 14  1  0     0  0
 11 17  1  0     0  0
 13 15  2  0     0  0
 14 16  2  0     0  0
 15 16  1  0     0  0
 19 21  1  0     0  0
 21 22  1  0     0  0
 22 23  1  0     0  0
 23 24  1  0     0  0
 24 25  1  0     0  0
 25 26  1  0     0  0
 26 27  1  0     0  0
 27 28  1  0     0  0
 28 29  1  0     0  0
 29 30  1  0     0  0
 30 31  1  0     0  0
 31 32  1  0     0  0
 32 33  1  0     0  0
 33 34  1  0     0  0
 34 35  1  0     0  0
 35 36  1  0     0  0
 36 37  1  0     0  0
M  END
> <standard_type>
pIC50

> <# Confs.>
25

> <canonical_smiles>
O=C(C1=CC(C(CCCCCCCCCCCCCCCCC)=O)=NN1)NC2=C(C(OC)=O)C=CC=C2

> <standard_relation>
=

> <predicted_activity_value>
5.4089353929735005

> <actual_activity_value>
5.294136287716081

> <Compound>
32

> <publication_ID>
nan

> <standard_units>
nM

> hash
1072549932847219870

$$$$
32_
XXILIB    08252103423D 0   0.00000     0.00000

 37 38  0     1  0            999 V2000
  -10.1114   -0.2666    2.8824 O   0  0  0  0  0  2           0  0  0
   -7.9126    0.1844    7.4705 O   0  0  0  0  0  2           0  0  0
   -4.8855   -0.0000    1.6344 O   0  0  0  0  0  2           0  0  0
  -12.0855    0.9050    2.7139 O   0  0  0  0  0  2           0  0  0
   -5.3730    0.0725    6.0425 N   0  0  0  0  0  3           0  0  0
   -4.3827    0.0358    5.1392 N   0  0  0  0  0  3           0  0  0
   -9.0206    0.1842    5.4445 N   0  0  0  0  0  3           0  0  0
   -6.6333    0.1050    5.5061 C   0  0  0  0  0  4           0  0  0
   -5.0220    0.0357    3.9632 C   0  0  0  0  0  4           0  0  0
  -10.3819    0.2366    5.8077 C   0  0  0  0  0  4           0  0  0
  -11.3850    0.2520    4.8199 C   0  0  0  0  0  4           0  0  0
   -6.4274    0.0729    4.1420 C   0  0  0  0  0  4           0  0  0
  -10.7638    0.2477    7.1580 C   0  0  0  0  0  4           0  0  0
  -12.7380    0.2484    5.1853 C   0  0  0  0  0  4           0  0  0
  -12.1141    0.2614    7.5151 C   0  0  0  0  0  4           0  0  0
  -13.0990    0.2578    6.5312 C   0  0  0  0  0  4           0  0  0
  -11.1014    0.2537    3.3720 C   0  0  0  0  0  4           0  0  0
   -7.8799    0.1606    6.2403 C   0  0  0  0  0  4           0  0  0
   -4.2958   -0.0000    2.7122 C   0  0  0  0  0  4           0  0  0
  -11.9233    0.9767    1.2937 C   0  0  0  0  0  4           0  0  0
   -2.7874    0.0000    2.7834 C   0  0  0  0  0  4           0  0  0
   -2.1576   -0.0000    1.3919 C   0  0  0  0  0  4           0  0  0
   -0.6299   -0.0000    1.3919 C   0  0  0  0  0  4           0  0  0
    0.0000    0.0000    0.0000 C   0  0  0  0  0  4           0  0  0
    1.5274    0.0000   -0.0000 C   0  0  0  0  0  4           0  0  0
    2.1573    0.0000   -1.3919 C   0  0  0  0  0  4           0  0  0
    3.6850   -0.0000   -1.3919 C   0  0  0  0  0  4           0  0  0
    4.3149   -0.0000   -2.7837 C   0  0  0  0  0  4           0  0  0
    3.9406   -1.2054   -3.6445 C   0  0  0  0  0  4           0  0  0
    4.5705   -1.2054   -5.0364 C   0  0  0  0  0  4           0  0  0
    4.1962   -2.4108   -5.8972 C   0  0  0  0  0  4           0  0  0
    4.8261   -2.4108   -7.2890 C   0  0  0  0  0  4           0  0  0
    4.4517   -3.6161   -8.1498 C   0  0  0  0  0  4           0  0  0
    5.0816   -3.6161   -9.5417 C   0  0  0  0  0  4           0  0  0
    4.7073   -4.8215  -10.4025 C   0  0  0  0  0  4           0  0  0
    5.3372   -4.8215  -11.7943 C   0  0  0  0  0  4           0  0  0
    4.9237   -6.0457  -12.5949 C   0  0  0  0  0  4           0  0  0
  1 17  2  0     0  0
  2 18  2  0     0  0
  3 19  2  0     0  0
  4 17  1  0     0  0
  4 20  1  0     0  0
  5  6  1  0     0  0
  5  8  1  0     0  0
  6  9  2  0     0  0
  7 10  1  0     0  0
  7 18  1  0     0  0
  8 12  2  0     0  0
  8 18  1  0     0  0
  9 12  1  0     0  0
  9 19  1  0     0  0
 10 11  2  0     0  0
 10 13  1  0     0  0
 11 14  1  0     0  0
 11 17  1  0     0  0
 13 15  2  0     0  0
 14 16  2  0     0  0
 15 16  1  0     0  0
 19 21  1  0     0  0
 21 22  1  0     0  0
 22 23  1  0     0  0
 23 24  1  0     0  0
 24 25  1  0     0  0
 25 26  1  0     0  0
 26 27  1  0     0  0
 27 28  1  0     0  0
 28 29  1  0     0  0
 29 30  1  0     0  0
 30 31  1  0     0  0
 31 32  1  0     0  0
 32 33  1  0     0  0
 33 34  1  0     0  0
 34 35  1  0     0  0
 35 36  1  0     0  0
 36 37  1  0     0  0
M  END
> <standard_type>
pIC50

> <# Confs.>
25

> <canonical_smiles>
O=C(C1=CC(C(CCCCCCCCCCCCCCCCC)=O)=NN1)NC2=C(C(OC)=O)C=CC=C2

> <standard_relation>
=

> <predicted_activity_value>
5.4089353929735005

> <actual_activity_value>
5.294136287716081

> <Compound>
32

> <publication_ID>
nan

> <standard_units>
nM

> hash
1072549932847219870

$$$$
32_
XXILIB    08252103423D 0   0.00000     0.00000

 37 38  0     1  0            999 V2000
  -10.1114   -0.2666    2.8824 O   0  0  0  0  0  2           0  0  0
   -7.9126    0.1844    7.4705 O   0  0  0  0  0  2           0  0  0
   -4.8855   -0.0000    1.6344 O   0  0  0  0  0  2           0  0  0
  -12.0855    0.9050    2.7139 O   0  0  0  0  0  2           0  0  0
   -5.3730    0.0725    6.0425 N   0  0  0  0  0  3           0  0  0
   -4.3827    0.0358    5.1392 N   0  0  0  0  0  3           0  0  0
   -9.0206    0.1842    5.4445 N   0  0  0  0  0  3           0  0  0
   -6.6333    0.1050    5.5061 C   0  0  0  0  0  4           0  0  0
   -5.0220    0.0357    3.9632 C   0  0  0  0  0  4           0  0  0
  -10.3819    0.2366    5.8077 C   0  0  0  0  0  4           0  0  0
  -11.3850    0.2520    4.8199 C   0  0  0  0  0  4           0  0  0
   -6.4274    0.0729    4.1420 C   0  0  0  0  0  4           0  0  0
  -10.7638    0.2477    7.1580 C   0  0  0  0  0  4           0  0  0
  -12.7380    0.2484    5.1853 C   0  0  0  0  0  4           0  0  0
  -12.1141    0.2614    7.5151 C   0  0  0  0  0  4           0  0  0
  -13.0990    0.2578    6.5312 C   0  0  0  0  0  4           0  0  0
  -11.1014    0.2537    3.3720 C   0  0  0  0  0  4           0  0  0
   -7.8799    0.1606    6.2403 C   0  0  0  0  0  4           0  0  0
   -4.2958   -0.0000    2.7122 C   0  0  0  0  0  4           0  0  0
  -11.9233    0.9767    1.2937 C   0  0  0  0  0  4           0  0  0
   -2.7874    0.0000    2.7834 C   0  0  0  0  0  4           0  0  0
   -2.1576   -0.0000    1.3919 C   0  0  0  0  0  4           0  0  0
   -0.6299   -0.0000    1.3919 C   0  0  0  0  0  4           0  0  0
    0.0000    0.0000    0.0000 C   0  0  0  0  0  4           0  0  0
    1.5274    0.0000   -0.0000 C   0  0  0  0  0  4           0  0  0
    2.1573    0.0000   -1.3919 C   0  0  0  0  0  4           0  0  0
    3.6850   -0.0000   -1.3919 C   0  0  0  0  0  4           0  0  0
    4.3149   -0.0000   -2.7837 C   0  0  0  0  0  4           0  0  0
    5.8427   -0.0000   -2.7837 C   0  0  0  0  0  4           0  0  0
    6.4726    1.2054   -2.0878 C   0  0  0  0  0  4           0  0  0
    8.0003    1.2054   -2.0878 C   0  0  0  0  0  4           0  0  0
    8.6302    2.4108   -1.3919 C   0  0  0  0  0  4           0  0  0
   10.1580    2.4108   -1.3919 C   0  0  0  0  0  4           0  0  0
   10.7879    3.6161   -0.6959 C   0  0  0  0  0  4           0  0  0
   12.3156    3.6161   -0.6959 C   0  0  0  0  0  4           0  0  0
   12.9455    4.8215    0.0000 C   0  0  0  0  0  4           0  0  0
   14.4637    4.7578   -0.0368 C   0  0  0  0  0  4           0  0  0
  1 17  2  0     0  0
  2 18  2  0     0  0
  3 19  2  0     0  0
  4 17  1  0     0  0
  4 20  1  0     0  0
  5  6  1  0     0  0
  5  8  1  0     0  0
  6  9  2  0     0  0
  7 10  1  0     0  0
  7 18  1  0     0  0
  8 12  2  0     0  0
  8 18  1  0     0  0
  9 12  1  0     0  0
  9 19  1  0     0  0
 10 11  2  0     0  0
 10 13  1  0     0  0
 11 14  1  0     0  0
 11 17  1  0     0  0
 13 15  2  0     0  0
 14 16  2  0     0  0
 15 16  1  0     0  0
 19 21  1  0     0  0
 21 22  1  0     0  0
 22 23  1  0     0  0
 23 24  1  0     0  0
 24 25  1  0     0  0
 25 26  1  0     0  0
 26 27  1  0     0  0
 27 28  1  0     0  0
 28 29  1  0     0  0
 29 30  1  0     0  0
 30 31  1  0     0  0
 31 32  1  0     0  0
 32 33  1  0     0  0
 33 34  1  0     0  0
 34 35  1  0     0  0
 35 36  1  0     0  0
 36 37  1  0     0  0
M  END
> <standard_type>
pIC50

> <# Confs.>
25

> <canonical_smiles>
O=C(C1=CC(C(CCCCCCCCCCCCCCCCC)=O)=NN1)NC2=C(C(OC)=O)C=CC=C2

> <standard_relation>
=

> <predicted_activity_value>
5.4089353929735005

> <actual_activity_value>
5.294136287716081

> <Compound>
32

> <publication_ID>
nan

> <standard_units>
nM

> hash
1072549932847219870

$$$$
32_
XXILIB    08252103423D 0   0.00000     0.00000

 37 38  0     1  0            999 V2000
  -10.1114   -0.2666    2.8824 O   0  0  0  0  0  2           0  0  0
   -7.9126    0.1844    7.4705 O   0  0  0  0  0  2           0  0  0
   -4.8855   -0.0000    1.6344 O   0  0  0  0  0  2           0  0  0
  -12.0855    0.9050    2.7139 O   0  0  0  0  0  2           0  0  0
   -5.3730    0.0725    6.0425 N   0  0  0  0  0  3           0  0  0
   -4.3827    0.0358    5.1392 N   0  0  0  0  0  3           0  0  0
   -9.0206    0.1842    5.4445 N   0  0  0  0  0  3           0  0  0
   -6.6333    0.1050    5.5061 C   0  0  0  0  0  4           0  0  0
   -5.0220    0.0357    3.9632 C   0  0  0  0  0  4           0  0  0
  -10.3819    0.2366    5.8077 C   0  0  0  0  0  4           0  0  0
  -11.3850    0.2520    4.8199 C   0  0  0  0  0  4           0  0  0
   -6.4274    0.0729    4.1420 C   0  0  0  0  0  4           0  0  0
  -10.7638    0.2477    7.1580 C   0  0  0  0  0  4           0  0  0
  -12.7380    0.2484    5.1853 C   0  0  0  0  0  4           0  0  0
  -12.1141    0.2614    7.5151 C   0  0  0  0  0  4           0  0  0
  -13.0990    0.2578    6.5312 C   0  0  0  0  0  4           0  0  0
  -11.1014    0.2537    3.3720 C   0  0  0  0  0  4           0  0  0
   -7.8799    0.1606    6.2403 C   0  0  0  0  0  4           0  0  0
   -4.2958   -0.0000    2.7122 C   0  0  0  0  0  4           0  0  0
  -11.9233    0.9767    1.2937 C   0  0  0  0  0  4           0  0  0
   -2.7874    0.0000    2.7834 C   0  0  0  0  0  4           0  0  0
   -2.1576   -0.0000    1.3919 C   0  0  0  0  0  4           0  0  0
   -0.6299   -0.0000    1.3919 C   0  0  0  0  0  4           0  0  0
    0.0000    0.0000    0.0000 C   0  0  0  0  0  4           0  0  0
    1.5274    0.0000    0.0000 C   0  0  0  0  0  4           0  0  0
    2.1573    0.0000   -1.3919 C   0  0  0  0  0  4           0  0  0
    3.6850    0.0000   -1.3919 C   0  0  0  0  0  4           0  0  0
    4.3149   -0.0000   -2.7837 C   0  0  0  0  0  4           0  0  0
    5.8427    0.0000   -2.7837 C   0  0  0  0  0  4           0  0  0
    6.4726    0.0000   -4.1756 C   0  0  0  0  0  4           0  0  0
    6.0982   -1.2054   -5.0364 C   0  0  0  0  0  4           0  0  0
    6.7281   -1.2054   -6.4282 C   0  0  0  0  0  4           0  0  0
    6.3538   -2.4108   -7.2890 C   0  0  0  0  0  4           0  0  0
    6.9837   -2.4108   -8.6809 C   0  0  0  0  0  4           0  0  0
    6.6094   -3.6161   -9.5417 C   0  0  0  0  0  4           0  0  0
    7.2393   -3.6161  -10.9335 C   0  0  0  0  0  4           0  0  0
    6.8258   -4.8403  -11.7341 C   0  0  0  0  0  4           0  0  0
  1 17  2  0     0  0
  2 18  2  0     0  0
  3 19  2  0     0  0
  4 17  1  0     0  0
  4 20  1  0     0  0
  5  6  1  0     0  0
  5  8  1  0     0  0
  6  9  2  0     0  0
  7 10  1  0     0  0
  7 18  1  0     0  0
  8 12  2  0     0  0
  8 18  1  0     0  0
  9 12  1  0     0  0
  9 19  1  0     0  0
 10 11  2  0     0  0
 10 13  1  0     0  0
 11 14  1  0     0  0
 11 17  1  0     0  0
 13 15  2  0     0  0
 14 16  2  0     0  0
 15 16  1  0     0  0
 19 21  1  0     0  0
 21 22  1  0     0  0
 22 23  1  0     0  0
 23 24  1  0     0  0
 24 25  1  0     0  0
 25 26  1  0     0  0
 26 27  1  0     0  0
 27 28  1  0     0  0
 28 29  1  0     0  0
 29 30  1  0     0  0
 30 31  1  0     0  0
 31 32  1  0     0  0
 32 33  1  0     0  0
 33 34  1  0     0  0
 34 35  1  0     0  0
 35 36  1  0     0  0
 36 37  1  0     0  0
M  END
> <standard_type>
pIC50

> <# Confs.>
25

> <canonical_smiles>
O=C(C1=CC(C(CCCCCCCCCCCCCCCCC)=O)=NN1)NC2=C(C(OC)=O)C=CC=C2

> <standard_relation>
=

> <predicted_activity_value>
5.4089353929735005

> <actual_activity_value>
5.294136287716081

> <Compound>
32

> <publication_ID>
nan

> <standard_units>
nM

> hash
1072549932847219870

$$$$
32_
XXILIB    08252103423D 0   0.00000     0.00000

 37 38  0     1  0            999 V2000
  -10.1114   -0.2666    2.8824 O   0  0  0  0  0  2           0  0  0
   -7.9126    0.1844    7.4705 O   0  0  0  0  0  2           0  0  0
   -4.8855   -0.0000    1.6344 O   0  0  0  0  0  2           0  0  0
  -12.0855    0.9050    2.7139 O   0  0  0  0  0  2           0  0  0
   -5.3730    0.0725    6.0425 N   0  0  0  0  0  3           0  0  0
   -4.3827    0.0358    5.1392 N   0  0  0  0  0  3           0  0  0
   -9.0206    0.1842    5.4445 N   0  0  0  0  0  3           0  0  0
   -6.6333    0.1050    5.5061 C   0  0  0  0  0  4           0  0  0
   -5.0220    0.0357    3.9632 C   0  0  0  0  0  4           0  0  0
  -10.3819    0.2366    5.8077 C   0  0  0  0  0  4           0  0  0
  -11.3850    0.2520    4.8199 C   0  0  0  0  0  4           0  0  0
   -6.4274    0.0729    4.1420 C   0  0  0  0  0  4           0  0  0
  -10.7638    0.2477    7.1580 C   0  0  0  0  0  4           0  0  0
  -12.7380    0.2484    5.1853 C   0  0  0  0  0  4           0  0  0
  -12.1141    0.2614    7.5151 C   0  0  0  0  0  4           0  0  0
  -13.0990    0.2578    6.5312 C   0  0  0  0  0  4           0  0  0
  -11.1014    0.2537    3.3720 C   0  0  0  0  0  4           0  0  0
   -7.8799    0.1606    6.2403 C   0  0  0  0  0  4           0  0  0
   -4.2958   -0.0000    2.7122 C   0  0  0  0  0  4           0  0  0
  -11.9233    0.9767    1.2937 C   0  0  0  0  0  4           0  0  0
   -2.7874    0.0000    2.7834 C   0  0  0  0  0  4           0  0  0
   -2.1576   -0.0000    1.3919 C   0  0  0  0  0  4           0  0  0
   -0.6299   -0.0000    1.3919 C   0  0  0  0  0  4           0  0  0
    0.0000    0.0000    0.0000 C   0  0  0  0  0  4           0  0  0
    1.5274    0.0000    0.0000 C   0  0  0  0  0  4           0  0  0
    2.1573    0.0000   -1.3919 C   0  0  0  0  0  4           0  0  0
    3.6850   -0.0000   -1.3919 C   0  0  0  0  0  4           0  0  0
    4.3149    0.0000   -2.7837 C   0  0  0  0  0  4           0  0  0
    5.8427   -0.0000   -2.7837 C   0  0  0  0  0  4           0  0  0
    6.4726    0.0000   -4.1756 C   0  0  0  0  0  4           0  0  0
    8.0003   -0.0000   -4.1756 C   0  0  0  0  0  4           0  0  0
    8.6302    1.2054   -3.4796 C   0  0  0  0  0  4           0  0  0
   10.1580    1.2054   -3.4796 C   0  0  0  0  0  4           0  0  0
   10.7879    2.4108   -2.7837 C   0  0  0  0  0  4           0  0  0
   12.3156    2.4108   -2.7837 C   0  0  0  0  0  4           0  0  0
   12.9455    3.6161   -2.0878 C   0  0  0  0  0  4           0  0  0
   14.4637    3.5524   -2.1246 C   0  0  0  0  0  4           0  0  0
  1 17  2  0     0  0
  2 18  2  0     0  0
  3 19  2  0     0  0
  4 17  1  0     0  0
  4 20  1  0     0  0
  5  6  1  0     0  0
  5  8  1  0     0  0
  6  9  2  0     0  0
  7 10  1  0     0  0
  7 18  1  0     0  0
  8 12  2  0     0  0
  8 18  1  0     0  0
  9 12  1  0     0  0
  9 19  1  0     0  0
 10 11  2  0     0  0
 10 13  1  0     0  0
 11 14  1  0     0  0
 11 17  1  0     0  0
 13 15  2  0     0  0
 14 16  2  0     0  0
 15 16  1  0     0  0
 19 21  1  0     0  0
 21 22  1  0     0  0
 22 23  1  0     0  0
 23 24  1  0     0  0
 24 25  1  0     0  0
 25 26  1  0     0  0
 26 27  1  0     0  0
 27 28  1  0     0  0
 28 29  1  0     0  0
 29 30  1  0     0  0
 30 31  1  0     0  0
 31 32  1  0     0  0
 32 33  1  0     0  0
 33 34  1  0     0  0
 34 35  1  0     0  0
 35 36  1  0     0  0
 36 37  1  0     0  0
M  END
> <standard_type>
pIC50

> <# Confs.>
25

> <canonical_smiles>
O=C(C1=CC(C(CCCCCCCCCCCCCCCCC)=O)=NN1)NC2=C(C(OC)=O)C=CC=C2

> <standard_relation>
=

> <predicted_activity_value>
5.4089353929735005

> <actual_activity_value>
5.294136287716081

> <Compound>
32

> <publication_ID>
nan

> <standard_units>
nM

> hash
1072549932847219870

$$$$
32_
XXILIB    08252103423D 0   0.00000     0.00000

 37 38  0     1  0            999 V2000
  -10.1114   -0.2666    2.8824 O   0  0  0  0  0  2           0  0  0
   -7.9126    0.1844    7.4705 O   0  0  0  0  0  2           0  0  0
   -4.8855   -0.0000    1.6344 O   0  0  0  0  0  2           0  0  0
  -12.0855    0.9050    2.7139 O   0  0  0  0  0  2           0  0  0
   -5.3730    0.0725    6.0425 N   0  0  0  0  0  3           0  0  0
   -4.3827    0.0358    5.1392 N   0  0  0  0  0  3           0  0  0
   -9.0206    0.1842    5.4445 N   0  0  0  0  0  3           0  0  0
   -6.6333    0.1050    5.5061 C   0  0  0  0  0  4           0  0  0
   -5.0220    0.0357    3.9632 C   0  0  0  0  0  4           0  0  0
  -10.3819    0.2366    5.8077 C   0  0  0  0  0  4           0  0  0
  -11.3850    0.2520    4.8199 C   0  0  0  0  0  4           0  0  0
   -6.4274    0.0729    4.1420 C   0  0  0  0  0  4           0  0  0
  -10.7638    0.2477    7.1580 C   0  0  0  0  0  4           0  0  0
  -12.7380    0.2484    5.1853 C   0  0  0  0  0  4           0  0  0
  -12.1141    0.2614    7.5151 C   0  0  0  0  0  4           0  0  0
  -13.0990    0.2578    6.5312 C   0  0  0  0  0  4           0  0  0
  -11.1014    0.2537    3.3720 C   0  0  0  0  0  4           0  0  0
   -7.8799    0.1606    6.2403 C   0  0  0  0  0  4           0  0  0
   -4.2958   -0.0000    2.7122 C   0  0  0  0  0  4           0  0  0
  -11.9233    0.9767    1.2937 C   0  0  0  0  0  4           0  0  0
   -2.7874    0.0000    2.7834 C   0  0  0  0  0  4           0  0  0
   -2.1576   -0.0000    1.3919 C   0  0  0  0  0  4           0  0  0
   -0.6299   -0.0000    1.3919 C   0  0  0  0  0  4           0  0  0
    0.0000    0.0000    0.0000 C   0  0  0  0  0  4           0  0  0
    1.5274    0.0000    0.0000 C   0  0  0  0  0  4           0  0  0
    2.1573    0.0000   -1.3919 C   0  0  0  0  0  4           0  0  0
    3.6850    0.0000   -1.3919 C   0  0  0  0  0  4           0  0  0
    4.3149    0.0000   -2.7837 C   0  0  0  0  0  4           0  0  0
    5.8427    0.0000   -2.7837 C   0  0  0  0  0  4           0  0  0
    6.4726    0.0000   -4.1756 C   0  0  0  0  0  4           0  0  0
    8.0003    0.0000   -4.1756 C   0  0  0  0  0  4           0  0  0
    8.6302    0.0000   -5.5674 C   0  0  0  0  0  4           0  0  0
    8.2559   -1.2054   -6.4282 C   0  0  0  0  0  4           0  0  0
    8.8858   -1.2054   -7.8201 C   0  0  0  0  0  4           0  0  0
    8.5115   -2.4108   -8.6809 C   0  0  0  0  0  4           0  0  0
    9.1414   -2.4108  -10.0727 C   0  0  0  0  0  4           0  0  0
    8.7279   -3.6349  -10.8733 C   0  0  0  0  0  4           0  0  0
  1 17  2  0     0  0
  2 18  2  0     0  0
  3 19  2  0     0  0
  4 17  1  0     0  0
  4 20  1  0     0  0
  5  6  1  0     0  0
  5  8  1  0     0  0
  6  9  2  0     0  0
  7 10  1  0     0  0
  7 18  1  0     0  0
  8 12  2  0     0  0
  8 18  1  0     0  0
  9 12  1  0     0  0
  9 19  1  0     0  0
 10 11  2  0     0  0
 10 13  1  0     0  0
 11 14  1  0     0  0
 11 17  1  0     0  0
 13 15  2  0     0  0
 14 16  2  0     0  0
 15 16  1  0     0  0
 19 21  1  0     0  0
 21 22  1  0     0  0
 22 23  1  0     0  0
 23 24  1  0     0  0
 24 25  1  0     0  0
 25 26  1  0     0  0
 26 27  1  0     0  0
 27 28  1  0     0  0
 28 29  1  0     0  0
 29 30  1  0     0  0
 30 31  1  0     0  0
 31 32  1  0     0  0
 32 33  1  0     0  0
 33 34  1  0     0  0
 34 35  1  0     0  0
 35 36  1  0     0  0
 36 37  1  0     0  0
M  END
> <standard_type>
pIC50

> <# Confs.>
25

> <canonical_smiles>
O=C(C1=CC(C(CCCCCCCCCCCCCCCCC)=O)=NN1)NC2=C(C(OC)=O)C=CC=C2

> <standard_relation>
=

> <predicted_activity_value>
5.4089353929735005

> <actual_activity_value>
5.294136287716081

> <Compound>
32

> <publication_ID>
nan

> <standard_units>
nM

> hash
1072549932847219870

$$$$
32_
XXILIB    08252103423D 0   0.00000     0.00000

 37 38  0     1  0            999 V2000
  -10.1114   -0.2666    2.8824 O   0  0  0  0  0  2           0  0  0
   -7.9126    0.1844    7.4705 O   0  0  0  0  0  2           0  0  0
   -4.8855   -0.0000    1.6344 O   0  0  0  0  0  2           0  0  0
  -12.0855    0.9050    2.7139 O   0  0  0  0  0  2           0  0  0
   -5.3730    0.0725    6.0425 N   0  0  0  0  0  3           0  0  0
   -4.3827    0.0358    5.1392 N   0  0  0  0  0  3           0  0  0
   -9.0206    0.1842    5.4445 N   0  0  0  0  0  3           0  0  0
   -6.6333    0.1050    5.5061 C   0  0  0  0  0  4           0  0  0
   -5.0220    0.0357    3.9632 C   0  0  0  0  0  4           0  0  0
  -10.3819    0.2366    5.8077 C   0  0  0  0  0  4           0  0  0
  -11.3850    0.2520    4.8199 C   0  0  0  0  0  4           0  0  0
   -6.4274    0.0729    4.1420 C   0  0  0  0  0  4           0  0  0
  -10.7638    0.2477    7.1580 C   0  0  0  0  0  4           0  0  0
  -12.7380    0.2484    5.1853 C   0  0  0  0  0  4           0  0  0
  -12.1141    0.2614    7.5151 C   0  0  0  0  0  4           0  0  0
  -13.0990    0.2578    6.5312 C   0  0  0  0  0  4           0  0  0
  -11.1014    0.2537    3.3720 C   0  0  0  0  0  4           0  0  0
   -7.8799    0.1606    6.2403 C   0  0  0  0  0  4           0  0  0
   -4.2958   -0.0000    2.7122 C   0  0  0  0  0  4           0  0  0
  -11.9233    0.9767    1.2937 C   0  0  0  0  0  4           0  0  0
   -2.7874    0.0000    2.7834 C   0  0  0  0  0  4           0  0  0
   -2.1576   -0.0000    1.3919 C   0  0  0  0  0  4           0  0  0
   -0.6299   -0.0000    1.3919 C   0  0  0  0  0  4           0  0  0
    0.0000    0.0000    0.0000 C   0  0  0  0  0  4           0  0  0
    1.5274    0.0000    0.0000 C   0  0  0  0  0  4           0  0  0
    2.1573    0.0000   -1.3919 C   0  0  0  0  0  4           0  0  0
    3.6850    0.0000   -1.3919 C   0  0  0  0  0  4           0  0  0
    4.3149    0.0000   -2.7837 C   0  0  0  0  0  4           0  0  0
    5.8427    0.0000   -2.7837 C   0  0  0  0  0  4           0  0  0
    6.4726    0.0000   -4.1756 C   0  0  0  0  0  4           0  0  0
    8.0003    0.0000   -4.1756 C   0  0  0  0  0  4           0  0  0
    8.6302    0.0000   -5.5674 C   0  0  0  0  0  4           0  0  0
   10.1580    0.0000   -5.5674 C   0  0  0  0  0  4           0  0  0
   10.7879    1.2054   -4.8715 C   0  0  0  0  0  4           0  0  0
   12.3156    1.2054   -4.8715 C   0  0  0  0  0  4           0  0  0
   12.9455    2.4108   -4.1756 C   0  0  0  0  0  4           0  0  0
   14.4637    2.3470   -4.2124 C   0  0  0  0  0  4           0  0  0
  1 17  2  0     0  0
  2 18  2  0     0  0
  3 19  2  0     0  0
  4 17  1  0     0  0
  4 20  1  0     0  0
  5  6  1  0     0  0
  5  8  1  0     0  0
  6  9  2  0     0  0
  7 10  1  0     0  0
  7 18  1  0     0  0
  8 12  2  0     0  0
  8 18  1  0     0  0
  9 12  1  0     0  0
  9 19  1  0     0  0
 10 11  2  0     0  0
 10 13  1  0     0  0
 11 14  1  0     0  0
 11 17  1  0     0  0
 13 15  2  0     0  0
 14 16  2  0     0  0
 15 16  1  0     0  0
 19 21  1  0     0  0
 21 22  1  0     0  0
 22 23  1  0     0  0
 23 24  1  0     0  0
 24 25  1  0     0  0
 25 26  1  0     0  0
 26 27  1  0     0  0
 27 28  1  0     0  0
 28 29  1  0     0  0
 29 30  1  0     0  0
 30 31  1  0     0  0
 31 32  1  0     0  0
 32 33  1  0     0  0
 33 34  1  0     0  0
 34 35  1  0     0  0
 35 36  1  0     0  0
 36 37  1  0     0  0
M  END
> <standard_type>
pIC50

> <# Confs.>
25

> <canonical_smiles>
O=C(C1=CC(C(CCCCCCCCCCCCCCCCC)=O)=NN1)NC2=C(C(OC)=O)C=CC=C2

> <standard_relation>
=

> <predicted_activity_value>
5.4089353929735005

> <actual_activity_value>
5.294136287716081

> <Compound>
32

> <publication_ID>
nan

> <standard_units>
nM

> hash
1072549932847219870

$$$$
32_
XXILIB    08252103423D 0   0.00000     0.00000

 37 38  0     1  0            999 V2000
  -10.1114   -0.2666    2.8824 O   0  0  0  0  0  2           0  0  0
   -7.9126    0.1844    7.4705 O   0  0  0  0  0  2           0  0  0
   -4.8855   -0.0000    1.6344 O   0  0  0  0  0  2           0  0  0
  -12.0855    0.9050    2.7139 O   0  0  0  0  0  2           0  0  0
   -5.3730    0.0725    6.0425 N   0  0  0  0  0  3           0  0  0
   -4.3827    0.0358    5.1392 N   0  0  0  0  0  3           0  0  0
   -9.0206    0.1842    5.4445 N   0  0  0  0  0  3           0  0  0
   -6.6333    0.1050    5.5061 C   0  0  0  0  0  4           0  0  0
   -5.0220    0.0357    3.9632 C   0  0  0  0  0  4           0  0  0
  -10.3819    0.2366    5.8077 C   0  0  0  0  0  4           0  0  0
  -11.3850    0.2520    4.8199 C   0  0  0  0  0  4           0  0  0
   -6.4274    0.0729    4.1420 C   0  0  0  0  0  4           0  0  0
  -10.7638    0.2477    7.1580 C   0  0  0  0  0  4           0  0  0
  -12.7380    0.2484    5.1853 C   0  0  0  0  0  4           0  0  0
  -12.1141    0.2614    7.5151 C   0  0  0  0  0  4           0  0  0
  -13.0990    0.2578    6.5312 C   0  0  0  0  0  4           0  0  0
  -11.1014    0.2537    3.3720 C   0  0  0  0  0  4           0  0  0
   -7.8799    0.1606    6.2403 C   0  0  0  0  0  4           0  0  0
   -4.2958   -0.0000    2.7122 C   0  0  0  0  0  4           0  0  0
  -11.9233    0.9767    1.2937 C   0  0  0  0  0  4           0  0  0
   -2.7874    0.0000    2.7834 C   0  0  0  0  0  4           0  0  0
   -2.1576   -0.0000    1.3919 C   0  0  0  0  0  4           0  0  0
   -0.6299   -0.0000    1.3919 C   0  0  0  0  0  4           0  0  0
    0.0000    0.0000    0.0000 C   0  0  0  0  0  4           0  0  0
    1.5274    0.0000    0.0000 C   0  0  0  0  0  4           0  0  0
    2.1573    0.0000   -1.3919 C   0  0  0  0  0  4           0  0  0
    3.6850    0.0000   -1.3919 C   0  0  0  0  0  4           0  0  0
    4.3149    0.0000   -2.7837 C   0  0  0  0  0  4           0  0  0
    5.8427    0.0000   -2.7837 C   0  0  0  0  0  4           0  0  0
    6.4726    0.0000   -4.1756 C   0  0  0  0  0  4           0  0  0
    8.0003    0.0000   -4.1756 C   0  0  0  0  0  4           0  0  0
    8.6302    0.0000   -5.5674 C   0  0  0  0  0  4           0  0  0
   10.1580   -0.0000   -5.5674 C   0  0  0  0  0  4           0  0  0
   10.7879    0.0000   -6.9593 C   0  0  0  0  0  4           0  0  0
   10.4135   -1.2054   -7.8201 C   0  0  0  0  0  4           0  0  0
   11.0434   -1.2054   -9.2119 C   0  0  0  0  0  4           0  0  0
   10.6300   -2.4295  -10.0125 C   0  0  0  0  0  4           0  0  0
  1 17  2  0     0  0
  2 18  2  0     0  0
  3 19  2  0     0  0
  4 17  1  0     0  0
  4 20  1  0     0  0
  5  6  1  0     0  0
  5  8  1  0     0  0
  6  9  2  0     0  0
  7 10  1  0     0  0
  7 18  1  0     0  0
  8 12  2  0     0  0
  8 18  1  0     0  0
  9 12  1  0     0  0
  9 19  1  0     0  0
 10 11  2  0     0  0
 10 13  1  0     0  0
 11 14  1  0     0  0
 11 17  1  0     0  0
 13 15  2  0     0  0
 14 16  2  0     0  0
 15 16  1  0     0  0
 19 21  1  0     0  0
 21 22  1  0     0  0
 22 23  1  0     0  0
 23 24  1  0     0  0
 24 25  1  0     0  0
 25 26  1  0     0  0
 26 27  1  0     0  0
 27 28  1  0     0  0
 28 29  1  0     0  0
 29 30  1  0     0  0
 30 31  1  0     0  0
 31 32  1  0     0  0
 32 33  1  0     0  0
 33 34  1  0     0  0
 34 35  1  0     0  0
 35 36  1  0     0  0
 36 37  1  0     0  0
M  END
> <standard_type>
pIC50

> <# Confs.>
25

> <canonical_smiles>
O=C(C1=CC(C(CCCCCCCCCCCCCCCCC)=O)=NN1)NC2=C(C(OC)=O)C=CC=C2

> <standard_relation>
=

> <predicted_activity_value>
5.4089353929735005

> <actual_activity_value>
5.294136287716081

> <Compound>
32

> <publication_ID>
nan

> <standard_units>
nM

> hash
1072549932847219870

$$$$
32_
XXILIB    08252103423D 0   0.00000     0.00000

 37 38  0     1  0            999 V2000
  -10.0992    0.7538    2.8860 O   0  0  0  0  0  2           0  0  0
   -7.9126    0.1844    7.4705 O   0  0  0  0  0  2           0  0  0
   -4.8855   -0.0000    1.6344 O   0  0  0  0  0  2           0  0  0
  -12.1023   -0.3663    2.7090 O   0  0  0  0  0  2           0  0  0
   -5.3730    0.0725    6.0425 N   0  0  0  0  0  3           0  0  0
   -4.3827    0.0358    5.1392 N   0  0  0  0  0  3           0  0  0
   -9.0206    0.1842    5.4445 N   0  0  0  0  0  3           0  0  0
   -6.6333    0.1050    5.5061 C   0  0  0  0  0  4           0  0  0
   -5.0220    0.0357    3.9632 C   0  0  0  0  0  4           0  0  0
  -10.3819    0.2366    5.8077 C   0  0  0  0  0  4           0  0  0
  -11.3850    0.2520    4.8199 C   0  0  0  0  0  4           0  0  0
   -6.4274    0.0729    4.1420 C   0  0  0  0  0  4           0  0  0
  -10.7638    0.2477    7.1580 C   0  0  0  0  0  4           0  0  0
  -12.7380    0.2484    5.1853 C   0  0  0  0  0  4           0  0  0
  -12.1141    0.2614    7.5151 C   0  0  0  0  0  4           0  0  0
  -13.0990    0.2578    6.5312 C   0  0  0  0  0  4           0  0  0
  -11.1014    0.2537    3.3720 C   0  0  0  0  0  4           0  0  0
   -7.8799    0.1606    6.2403 C   0  0  0  0  0  4           0  0  0
   -4.2958   -0.0000    2.7122 C   0  0  0  0  0  4           0  0  0
  -11.9437   -0.4283    1.2880 C   0  0  0  0  0  4           0  0  0
   -2.7874    0.0000    2.7834 C   0  0  0  0  0  4           0  0  0
   -2.1576   -0.0000    1.3919 C   0  0  0  0  0  4           0  0  0
   -0.6299   -0.0000    1.3919 C   0  0  0  0  0  4           0  0  0
    0.0000    0.0000    0.0000 C   0  0  0  0  0  4           0  0  0
    1.5274    0.0000    0.0000 C   0  0  0  0  0  4           0  0  0
    2.1573    0.0000   -1.3919 C   0  0  0  0  0  4           0  0  0
    3.6850    0.0000   -1.3919 C   0  0  0  0  0  4           0  0  0
    4.3149    0.0000   -2.7837 C   0  0  0  0  0  4           0  0  0
    5.8427    0.0000   -2.7837 C   0  0  0  0  0  4           0  0  0
    6.4726    0.0000   -4.1756 C   0  0  0  0  0  4           0  0  0
    8.0003    0.0000   -4.1756 C   0  0  0  0  0  4           0  0  0
    8.6302    0.0000   -5.5674 C   0  0  0  0  0  4           0  0  0
   10.1580    0.0000   -5.5674 C   0  0  0  0  0  4           0  0  0
   10.7879    0.0000   -6.9593 C   0  0  0  0  0  4           0  0  0
   12.3156    0.0000   -6.9593 C   0  0  0  0  0  4           0  0  0
   12.9455   -1.2054   -6.2634 C   0  0  0  0  0  4           0  0  0
   14.4637   -1.1416   -6.3002 C   0  0  0  0  0  4           0  0  0
  1 17  2  0     0  0
  2 18  2  0     0  0
  3 19  2  0     0  0
  4 17  1  0     0  0
  4 20  1  0     0  0
  5  6  1  0     0  0
  5  8  1  0     0  0
  6  9  2  0     0  0
  7 10  1  0     0  0
  7 18  1  0     0  0
  8 12  2  0     0  0
  8 18  1  0     0  0
  9 12  1  0     0  0
  9 19  1  0     0  0
 10 11  2  0     0  0
 10 13  1  0     0  0
 11 14  1  0     0  0
 11 17  1  0     0  0
 13 15  2  0     0  0
 14 16  2  0     0  0
 15 16  1  0     0  0
 19 21  1  0     0  0
 21 22  1  0     0  0
 22 23  1  0     0  0
 23 24  1  0     0  0
 24 25  1  0     0  0
 25 26  1  0     0  0
 26 27  1  0     0  0
 27 28  1  0     0  0
 28 29  1  0     0  0
 29 30  1  0     0  0
 30 31  1  0     0  0
 31 32  1  0     0  0
 32 33  1  0     0  0
 33 34  1  0     0  0
 34 35  1  0     0  0
 35 36  1  0     0  0
 36 37  1  0     0  0
M  END
> <standard_type>
pIC50

> <# Confs.>
25

> <canonical_smiles>
O=C(C1=CC(C(CCCCCCCCCCCCCCCCC)=O)=NN1)NC2=C(C(OC)=O)C=CC=C2

> <standard_relation>
=

> <predicted_activity_value>
5.4089353929735005

> <actual_activity_value>
5.294136287716081

> <Compound>
32

> <publication_ID>
nan

> <standard_units>
nM

> hash
1072549932847219870

$$$$
32_
XXILIB    08252103423D 0   0.00000     0.00000

 37 38  0     1  0            999 V2000
  -10.1114   -0.2666    2.8824 O   0  0  0  0  0  2           0  0  0
   -7.9126    0.1844    7.4705 O   0  0  0  0  0  2           0  0  0
   -4.8855   -0.0000    1.6344 O   0  0  0  0  0  2           0  0  0
  -12.0855    0.9050    2.7139 O   0  0  0  0  0  2           0  0  0
   -5.3730    0.0725    6.0425 N   0  0  0  0  0  3           0  0  0
   -4.3827    0.0358    5.1392 N   0  0  0  0  0  3           0  0  0
   -9.0206    0.1842    5.4445 N   0  0  0  0  0  3           0  0  0
   -6.6333    0.1050    5.5061 C   0  0  0  0  0  4           0  0  0
   -5.0220    0.0357    3.9632 C   0  0  0  0  0  4           0  0  0
  -10.3819    0.2366    5.8077 C   0  0  0  0  0  4           0  0  0
  -11.3850    0.2520    4.8199 C   0  0  0  0  0  4           0  0  0
   -6.4274    0.0729    4.1420 C   0  0  0  0  0  4           0  0  0
  -10.7638    0.2477    7.1580 C   0  0  0  0  0  4           0  0  0
  -12.7380    0.2484    5.1853 C   0  0  0  0  0  4           0  0  0
  -12.1141    0.2614    7.5151 C   0  0  0  0  0  4           0  0  0
  -13.0990    0.2578    6.5312 C   0  0  0  0  0  4           0  0  0
  -11.1014    0.2537    3.3720 C   0  0  0  0  0  4           0  0  0
   -7.8799    0.1606    6.2403 C   0  0  0  0  0  4           0  0  0
   -4.2958   -0.0000    2.7122 C   0  0  0  0  0  4           0  0  0
  -11.9233    0.9767    1.2937 C   0  0  0  0  0  4           0  0  0
   -2.7874    0.0000    2.7834 C   0  0  0  0  0  4           0  0  0
   -2.1576   -0.0000    1.3919 C   0  0  0  0  0  4           0  0  0
   -0.6299   -0.0000    1.3919 C   0  0  0  0  0  4           0  0  0
    0.0000    0.0000    0.0000 C   0  0  0  0  0  4           0  0  0
    1.5274    0.0000   -0.0000 C   0  0  0  0  0  4           0  0  0
    2.1573   -1.2054    0.6959 C   0  0  0  0  0  4           0  0  0
    1.7829   -2.5535    0.0824 C   0  0  0  0  0  4           0  0  0
    2.4128   -3.7589    0.7784 C   0  0  0  0  0  4           0  0  0
    2.0385   -5.1071    0.1649 C   0  0  0  0  0  4           0  0  0
    2.6684   -6.3125    0.8608 C   0  0  0  0  0  4           0  0  0
    2.2941   -7.6606    0.2473 C   0  0  0  0  0  4           0  0  0
    2.9240   -8.8660    0.9432 C   0  0  0  0  0  4           0  0  0
    2.5497  -10.2142    0.3297 C   0  0  0  0  0  4           0  0  0
    3.1796  -11.4196    1.0257 C   0  0  0  0  0  4           0  0  0
    2.8052  -12.7677    0.4122 C   0  0  0  0  0  4           0  0  0
    3.4351  -13.9731    1.1081 C   0  0  0  0  0  4           0  0  0
    3.0217  -15.2785    0.4482 C   0  0  0  0  0  4           0  0  0
  1 17  2  0     0  0
  2 18  2  0     0  0
  3 19  2  0     0  0
  4 17  1  0     0  0
  4 20  1  0     0  0
  5  6  1  0     0  0
  5  8  1  0     0  0
  6  9  2  0     0  0
  7 10  1  0     0  0
  7 18  1  0     0  0
  8 12  2  0     0  0
  8 18  1  0     0  0
  9 12  1  0     0  0
  9 19  1  0     0  0
 10 11  2  0     0  0
 10 13  1  0     0  0
 11 14  1  0     0  0
 11 17  1  0     0  0
 13 15  2  0     0  0
 14 16  2  0     0  0
 15 16  1  0     0  0
 19 21  1  0     0  0
 21 22  1  0     0  0
 22 23  1  0     0  0
 23 24  1  0     0  0
 24 25  1  0     0  0
 25 26  1  0     0  0
 26 27  1  0     0  0
 27 28  1  0     0  0
 28 29  1  0     0  0
 29 30  1  0     0  0
 30 31  1  0     0  0
 31 32  1  0     0  0
 32 33  1  0     0  0
 33 34  1  0     0  0
 34 35  1  0     0  0
 35 36  1  0     0  0
 36 37  1  0     0  0
M  END
> <standard_type>
pIC50

> <# Confs.>
25

> <canonical_smiles>
O=C(C1=CC(C(CCCCCCCCCCCCCCCCC)=O)=NN1)NC2=C(C(OC)=O)C=CC=C2

> <standard_relation>
=

> <predicted_activity_value>
5.4089353929735005

> <actual_activity_value>
5.294136287716081

> <Compound>
32

> <publication_ID>
nan

> <standard_units>
nM

> hash
1072549932847219870

$$$$
32_
XXILIB    08252103423D 0   0.00000     0.00000

 37 38  0     1  0            999 V2000
  -10.1114   -0.2666    2.8824 O   0  0  0  0  0  2           0  0  0
   -7.9126    0.1844    7.4705 O   0  0  0  0  0  2           0  0  0
   -4.8855   -0.0000    1.6344 O   0  0  0  0  0  2           0  0  0
  -12.0855    0.9050    2.7139 O   0  0  0  0  0  2           0  0  0
   -5.3730    0.0725    6.0425 N   0  0  0  0  0  3           0  0  0
   -4.3827    0.0358    5.1392 N   0  0  0  0  0  3           0  0  0
   -9.0206    0.1842    5.4445 N   0  0  0  0  0  3           0  0  0
   -6.6333    0.1050    5.5061 C   0  0  0  0  0  4           0  0  0
   -5.0220    0.0357    3.9632 C   0  0  0  0  0  4           0  0  0
  -10.3819    0.2366    5.8077 C   0  0  0  0  0  4           0  0  0
  -11.3850    0.2520    4.8199 C   0  0  0  0  0  4           0  0  0
   -6.4274    0.0729    4.1420 C   0  0  0  0  0  4           0  0  0
  -10.7638    0.2477    7.1580 C   0  0  0  0  0  4           0  0  0
  -12.7380    0.2484    5.1853 C   0  0  0  0  0  4           0  0  0
  -12.1141    0.2614    7.5151 C   0  0  0  0  0  4           0  0  0
  -13.0990    0.2578    6.5312 C   0  0  0  0  0  4           0  0  0
  -11.1014    0.2537    3.3720 C   0  0  0  0  0  4           0  0  0
   -7.8799    0.1606    6.2403 C   0  0  0  0  0  4           0  0  0
   -4.2958   -0.0000    2.7122 C   0  0  0  0  0  4           0  0  0
  -11.9233    0.9767    1.2937 C   0  0  0  0  0  4           0  0  0
   -2.7874    0.0000    2.7834 C   0  0  0  0  0  4           0  0  0
   -2.1576   -0.0000    1.3919 C   0  0  0  0  0  4           0  0  0
   -0.6299   -0.0000    1.3919 C   0  0  0  0  0  4           0  0  0
    0.0000    0.0000    0.0000 C   0  0  0  0  0  4           0  0  0
    1.5274    0.0000    0.0000 C   0  0  0  0  0  4           0  0  0
    2.1573    0.0000   -1.3919 C   0  0  0  0  0  4           0  0  0
    1.7829    1.2054   -2.2527 C   0  0  0  0  0  4           0  0  0
    2.1875    2.5535   -1.6587 C   0  0  0  0  0  4           0  0  0
    1.8132    3.7589   -2.5195 C   0  0  0  0  0  4           0  0  0
    2.2178    5.1071   -1.9255 C   0  0  0  0  0  4           0  0  0
    1.8435    6.3125   -2.7863 C   0  0  0  0  0  4           0  0  0
    2.2481    7.6606   -2.1923 C   0  0  0  0  0  4           0  0  0
    1.8738    8.8660   -3.0531 C   0  0  0  0  0  4           0  0  0
    2.2784   10.2142   -2.4592 C   0  0  0  0  0  4           0  0  0
    1.9040   11.4196   -3.3200 C   0  0  0  0  0  4           0  0  0
    2.3086   12.7677   -2.7260 C   0  0  0  0  0  4           0  0  0
    1.9071   13.9205   -3.6316 C   0  0  0  0  0  4           0  0  0
  1 17  2  0     0  0
  2 18  2  0     0  0
  3 19  2  0     0  0
  4 17  1  0     0  0
  4 20  1  0     0  0
  5  6  1  0     0  0
  5  8  1  0     0  0
  6  9  2  0     0  0
  7 10  1  0     0  0
  7 18  1  0     0  0
  8 12  2  0     0  0
  8 18  1  0     0  0
  9 12  1  0     0  0
  9 19  1  0     0  0
 10 11  2  0     0  0
 10 13  1  0     0  0
 11 14  1  0     0  0
 11 17  1  0     0  0
 13 15  2  0     0  0
 14 16  2  0     0  0
 15 16  1  0     0  0
 19 21  1  0     0  0
 21 22  1  0     0  0
 22 23  1  0     0  0
 23 24  1  0     0  0
 24 25  1  0     0  0
 25 26  1  0     0  0
 26 27  1  0     0  0
 27 28  1  0     0  0
 28 29  1  0     0  0
 29 30  1  0     0  0
 30 31  1  0     0  0
 31 32  1  0     0  0
 32 33  1  0     0  0
 33 34  1  0     0  0
 34 35  1  0     0  0
 35 36  1  0     0  0
 36 37  1  0     0  0
M  END
> <standard_type>
pIC50

> <# Confs.>
25

> <canonical_smiles>
O=C(C1=CC(C(CCCCCCCCCCCCCCCCC)=O)=NN1)NC2=C(C(OC)=O)C=CC=C2

> <standard_relation>
=

> <predicted_activity_value>
5.4089353929735005

> <actual_activity_value>
5.294136287716081

> <Compound>
32

> <publication_ID>
nan

> <standard_units>
nM

> hash
1072549932847219870

$$$$
32_
XXILIB    08252103423D 0   0.00000     0.00000

 37 38  0     1  0            999 V2000
  -10.1114   -0.2666    2.8824 O   0  0  0  0  0  2           0  0  0
   -7.9126    0.1844    7.4705 O   0  0  0  0  0  2           0  0  0
   -4.8855   -0.0000    1.6344 O   0  0  0  0  0  2           0  0  0
  -12.0855    0.9050    2.7139 O   0  0  0  0  0  2           0  0  0
   -5.3730    0.0725    6.0425 N   0  0  0  0  0  3           0  0  0
   -4.3827    0.0358    5.1392 N   0  0  0  0  0  3           0  0  0
   -9.0206    0.1842    5.4445 N   0  0  0  0  0  3           0  0  0
   -6.6333    0.1050    5.5061 C   0  0  0  0  0  4           0  0  0
   -5.0220    0.0357    3.9632 C   0  0  0  0  0  4           0  0  0
  -10.3819    0.2366    5.8077 C   0  0  0  0  0  4           0  0  0
  -11.3850    0.2520    4.8199 C   0  0  0  0  0  4           0  0  0
   -6.4274    0.0729    4.1420 C   0  0  0  0  0  4           0  0  0
  -10.7638    0.2477    7.1580 C   0  0  0  0  0  4           0  0  0
  -12.7380    0.2484    5.1853 C   0  0  0  0  0  4           0  0  0
  -12.1141    0.2614    7.5151 C   0  0  0  0  0  4           0  0  0
  -13.0990    0.2578    6.5312 C   0  0  0  0  0  4           0  0  0
  -11.1014    0.2537    3.3720 C   0  0  0  0  0  4           0  0  0
   -7.8799    0.1606    6.2403 C   0  0  0  0  0  4           0  0  0
   -4.2958   -0.0000    2.7122 C   0  0  0  0  0  4           0  0  0
  -11.9233    0.9767    1.2937 C   0  0  0  0  0  4           0  0  0
   -2.7874    0.0000    2.7834 C   0  0  0  0  0  4           0  0  0
   -2.1576   -0.0000    1.3919 C   0  0  0  0  0  4           0  0  0
   -0.6299   -0.0000    1.3919 C   0  0  0  0  0  4           0  0  0
    0.0000    0.0000    0.0000 C   0  0  0  0  0  4           0  0  0
    1.5274    0.0000    0.0000 C   0  0  0  0  0  4           0  0  0
    2.1573    0.0000   -1.3919 C   0  0  0  0  0  4           0  0  0
    3.6850   -0.0000   -1.3919 C   0  0  0  0  0  4           0  0  0
    4.3149    0.0000   -2.7837 C   0  0  0  0  0  4           0  0  0
    5.8427   -0.0000   -2.7837 C   0  0  0  0  0  4           0  0  0
    6.4726   -1.2054   -2.0878 C   0  0  0  0  0  4           0  0  0
    6.0982   -2.5535   -2.7013 C   0  0  0  0  0  4           0  0  0
    6.7281   -3.7589   -2.0054 C   0  0  0  0  0  4           0  0  0
    6.3538   -5.1071   -2.6188 C   0  0  0  0  0  4           0  0  0
    6.9837   -6.3125   -1.9229 C   0  0  0  0  0  4           0  0  0
    6.6094   -7.6606   -2.5364 C   0  0  0  0  0  4           0  0  0
    7.2393   -8.8660   -1.8405 C   0  0  0  0  0  4           0  0  0
    6.8258  -10.1714   -2.5003 C   0  0  0  0  0  4           0  0  0
  1 17  2  0     0  0
  2 18  2  0     0  0
  3 19  2  0     0  0
  4 17  1  0     0  0
  4 20  1  0     0  0
  5  6  1  0     0  0
  5  8  1  0     0  0
  6  9  2  0     0  0
  7 10  1  0     0  0
  7 18  1  0     0  0
  8 12  2  0     0  0
  8 18  1  0     0  0
  9 12  1  0     0  0
  9 19  1  0     0  0
 10 11  2  0     0  0
 10 13  1  0     0  0
 11 14  1  0     0  0
 11 17  1  0     0  0
 13 15  2  0     0  0
 14 16  2  0     0  0
 15 16  1  0     0  0
 19 21  1  0     0  0
 21 22  1  0     0  0
 22 23  1  0     0  0
 23 24  1  0     0  0
 24 25  1  0     0  0
 25 26  1  0     0  0
 26 27  1  0     0  0
 27 28  1  0     0  0
 28 29  1  0     0  0
 29 30  1  0     0  0
 30 31  1  0     0  0
 31 32  1  0     0  0
 32 33  1  0     0  0
 33 34  1  0     0  0
 34 35  1  0     0  0
 35 36  1  0     0  0
 36 37  1  0     0  0
M  END
> <standard_type>
pIC50

> <# Confs.>
25

> <canonical_smiles>
O=C(C1=CC(C(CCCCCCCCCCCCCCCCC)=O)=NN1)NC2=C(C(OC)=O)C=CC=C2

> <standard_relation>
=

> <predicted_activity_value>
5.4089353929735005

> <actual_activity_value>
5.294136287716081

> <Compound>
32

> <publication_ID>
nan

> <standard_units>
nM

> hash
1072549932847219870

$$$$
34_
XXILIB    08252103423D 0   0.00000     0.00000

 20 22  0     1  0            999 V2000
    1.4713   -2.3881    0.0287 O   0  0  0  0  0  2           0  0  0
    4.3453    2.0860    0.0778 O   0  0  0  0  0  2           0  0  0
    1.6606    2.4016    0.0009 O   0  0  0  0  0  2           0  0  0
    4.1758   -2.6297   -0.0653 O   0  0  0  0  0  2           0  0  0
   -2.1129   -0.0040    0.7053 N   0  0  0  0  0  3           0  0  0
   -2.1831    0.0050   -0.6651 C   0  0  0  0  0  4           0  0  0
   -0.8073    0.0000    1.1302 C   0  0  0  0  0  4           0  0  0
   -0.8722    0.0088   -1.1456 C   0  0  0  0  0  4           0  0  0
    0.0000    0.0000    0.0000 C   0  0  0  0  0  4           0  0  0
   -3.3062    0.0101   -1.5016 C   0  0  0  0  0  4           0  0  0
   -0.6876    0.0152   -2.5482 C   0  0  0  0  0  4           0  0  0
   -3.0908    0.0193   -2.8804 C   0  0  0  0  0  4           0  0  0
   -1.8002    0.0220   -3.3986 C   0  0  0  0  0  4           0  0  0
    2.1115   -1.3391   -0.0000 C   0  0  0  0  0  4           0  0  0
    3.6653    1.0650    0.0348 C   0  0  0  0  0  4           0  0  0
    2.1819    1.1210    0.0167 C   0  0  0  0  0  4           0  0  0
    3.5914   -1.3804   -0.0274 C   0  0  0  0  0  4           0  0  0
    1.4317   -0.0000   -0.0000 C   0  0  0  0  0  4           0  0  0
   -0.5038    0.0123    2.5865 C   0  0  0  0  0  4           0  0  0
    4.3100   -0.2567   -0.0087 C   0  0  0  0  0  4           0  0  0
  1 14  2  0     0  0
  2 15  2  0     0  0
  3 16  1  0     0  0
  4 17  1  0     0  0
  5  6  1  0     0  0
  5  7  1  0     0  0
  6  8  2  0     0  0
  6 10  1  0     0  0
  7  9  2  0     0  0
  7 19  1  0     0  0
  8  9  1  0     0  0
  8 11  1  0     0  0
  9 18  1  0     0  0
 10 12  2  0     0  0
 11 13  2  0     0  0
 12 13  1  0     0  0
 14 17  1  0     0  0
 14 18  1  0     0  0
 15 16  1  0     0  0
 15 20  1  0     0  0
 16 18  2  0     0  0
 17 20  2  0     0  0
M  END
> <standard_type>
pIC50

> <# Confs.>
2

> <canonical_smiles>
O=C(C(O)=C1)C(C2=C(C)NC3=C2C=CC=C3)=C(O)C1=O

> <standard_relation>
=

> <predicted_activity_value>
5.440093374963888

> <actual_activity_value>
5.045757490560675

> <Compound>
34

> <publication_ID>
nan

> <standard_units>
nM

> hash
17716254625706890456

$$$$
34_
XXILIB    08252103423D 0   0.00000     0.00000

 20 22  0     1  0            999 V2000
    1.4713    2.3881   -0.0287 O   0  0  0  0  0  2           0  0  0
    4.3453   -2.0860   -0.0778 O   0  0  0  0  0  2           0  0  0
    1.6606   -2.4016   -0.0009 O   0  0  0  0  0  2           0  0  0
    4.1758    2.6297    0.0653 O   0  0  0  0  0  2           0  0  0
   -2.1129   -0.0040    0.7053 N   0  0  0  0  0  3           0  0  0
   -2.1831    0.0050   -0.6651 C   0  0  0  0  0  4           0  0  0
   -0.8073    0.0000    1.1302 C   0  0  0  0  0  4           0  0  0
   -0.8722    0.0088   -1.1456 C   0  0  0  0  0  4           0  0  0
    0.0000    0.0000    0.0000 C   0  0  0  0  0  4           0  0  0
   -3.3062    0.0101   -1.5016 C   0  0  0  0  0  4           0  0  0
   -0.6876    0.0152   -2.5482 C   0  0  0  0  0  4           0  0  0
   -3.0908    0.0193   -2.8804 C   0  0  0  0  0  4           0  0  0
   -1.8002    0.0220   -3.3986 C   0  0  0  0  0  4           0  0  0
    2.1115    1.3391    0.0000 C   0  0  0  0  0  4           0  0  0
    3.6653   -1.0650   -0.0348 C   0  0  0  0  0  4           0  0  0
    2.1819   -1.1210   -0.0167 C   0  0  0  0  0  4           0  0  0
    3.5914    1.3804    0.0274 C   0  0  0  0  0  4           0  0  0
    1.4317   -0.0000    0.0000 C   0  0  0  0  0  4           0  0  0
   -0.5038    0.0123    2.5865 C   0  0  0  0  0  4           0  0  0
    4.3100    0.2567    0.0087 C   0  0  0  0  0  4           0  0  0
  1 14  2  0     0  0
  2 15  2  0     0  0
  3 16  1  0     0  0
  4 17  1  0     0  0
  5  6  1  0     0  0
  5  7  1  0     0  0
  6  8  2  0     0  0
  6 10  1  0     0  0
  7  9  2  0     0  0
  7 19  1  0     0  0
  8  9  1  0     0  0
  8 11  1  0     0  0
  9 18  1  0     0  0
 10 12  2  0     0  0
 11 13  2  0     0  0
 12 13  1  0     0  0
 14 17  1  0     0  0
 14 18  1  0     0  0
 15 16  1  0     0  0
 15 20  1  0     0  0
 16 18  2  0     0  0
 17 20  2  0     0  0
M  END
> <standard_type>
pIC50

> <# Confs.>
2

> <canonical_smiles>
O=C(C(O)=C1)C(C2=C(C)NC3=C2C=CC=C3)=C(O)C1=O

> <standard_relation>
=

> <predicted_activity_value>
5.440093374963888

> <actual_activity_value>
5.045757490560675

> <Compound>
34

> <publication_ID>
nan

> <standard_units>
nM

> hash
17716254625706890456

$$$$
29_
XXILIB    08252103423D 0   0.00000     0.00000

 36 37  0     1  0            999 V2000
   14.6068   -0.1220   -5.2069 S   0  0  0  0  0  2           0  0  0
   13.9632   -0.0777   -2.3104 O   0  0  0  0  0  2           0  0  0
    9.7140   -0.0743   -7.2445 O   0  0  0  0  0  2           0  0  0
    6.3573   -0.0000   -1.5893 O   0  0  0  0  0  2           0  0  0
   11.6858   -0.0437   -2.6651 O   0  0  0  0  0  2           0  0  0
    7.0893   -0.0275   -5.9656 N   0  0  0  0  0  3           0  0  0
    6.0483   -0.0103   -5.1207 N   0  0  0  0  0  3           0  0  0
   10.6880   -0.0673   -5.1494 N   0  0  0  0  0  3           0  0  0
   13.0437   -0.0922   -4.4826 C   0  0  0  0  0  4           0  0  0
   13.9623   -0.1312   -6.7824 C   0  0  0  0  0  4           0  0  0
    8.3170   -0.0380   -5.3579 C   0  0  0  0  0  4           0  0  0
    6.6188   -0.0101   -3.9097 C   0  0  0  0  0  4           0  0  0
   12.0434   -0.0881   -5.4473 C   0  0  0  0  0  4           0  0  0
   12.5880   -0.1061   -6.7737 C   0  0  0  0  0  4           0  0  0
    8.0325   -0.0230   -4.0075 C   0  0  0  0  0  4           0  0  0
   12.9908   -0.0739   -3.0540 C   0  0  0  0  0  4           0  0  0
    9.6044   -0.0612   -6.0185 C   0  0  0  0  0  4           0  0  0
    5.8157    0.0000   -2.6953 C   0  0  0  0  0  4           0  0  0
   11.4638   -0.0143   -1.2507 C   0  0  0  0  0  4           0  0  0
    4.3038    0.0000   -2.7896 C   0  0  0  0  0  4           0  0  0
    3.6800    0.0000   -1.3949 C   0  0  0  0  0  4           0  0  0
    2.1520    0.0000   -1.3949 C   0  0  0  0  0  4           0  0  0
    1.5281   -0.0000   -0.0000 C   0  0  0  0  0  4           0  0  0
    0.0000    0.0000    0.0000 C   0  0  0  0  0  4           0  0  0
   -0.6239    0.0000    1.3949 C   0  0  0  0  0  4           0  0  0
   -2.1520   -0.0000    1.3949 C   0  0  0  0  0  4           0  0  0
   -2.7758   -0.0000    2.7899 C   0  0  0  0  0  4           0  0  0
   -4.3039   -0.0000    2.7899 C   0  0  0  0  0  4           0  0  0
   -4.9278   -0.0000    4.1848 C   0  0  0  0  0  4           0  0  0
   -6.4559   -0.0000    4.1848 C   0  0  0  0  0  4           0  0  0
   -7.0798   -0.0000    5.5797 C   0  0  0  0  0  4           0  0  0
   -8.6078   -0.0000    5.5797 C   0  0  0  0  0  4           0  0  0
   -9.2317   -0.0000    6.9747 C   0  0  0  0  0  4           0  0  0
  -10.7598   -0.0000    6.9747 C   0  0  0  0  0  4           0  0  0
  -11.3837   -0.0000    8.3696 C   0  0  0  0  0  4           0  0  0
  -12.9019   -0.0000    8.2996 C   0  0  0  0  0  4           0  0  0
  1  9  1  0     0  0
  1 10  1  0     0  0
  2 16  2  0     0  0
  3 17  2  0     0  0
  4 18  2  0     0  0
  5 16  1  0     0  0
  5 19  1  0     0  0
  6  7  1  0     0  0
  6 11  1  0     0  0
  7 12  2  0     0  0
  8 13  1  0     0  0
  8 17  1  0     0  0
  9 13  2  0     0  0
  9 16  1  0     0  0
 10 14  2  0     0  0
 11 15  2  0     0  0
 11 17  1  0     0  0
 12 15  1  0     0  0
 12 18  1  0     0  0
 13 14  1  0     0  0
 18 20  1  0     0  0
 20 21  1  0     0  0
 21 22  1  0     0  0
 22 23  1  0     0  0
 23 24  1  0     0  0
 24 25  1  0     0  0
 25 26  1  0     0  0
 26 27  1  0     0  0
 27 28  1  0     0  0
 28 29  1  0     0  0
 29 30  1  0     0  0
 30 31  1  0     0  0
 31 32  1  0     0  0
 32 33  1  0     0  0
 33 34  1  0     0  0
 34 35  1  0     0  0
 35 36  1  0     0  0
M  END
> <standard_type>
pIC50

> <# Confs.>
25

> <canonical_smiles>
COC(C1=C(NC(C2=CC(C(CCCCCCCCCCCCCCCCC)=O)=NN2)=O)C=CS1)=O

> <standard_relation>
=

> <predicted_activity_value>
5.412289034981089

> <actual_activity_value>
5.473660722610156

> <Compound>
29

> <publication_ID>
nan

> <standard_units>
nM

> hash
3967794379276762336

$$$$
29_
XXILIB    08252103423D 0   0.00000     0.00000

 36 37  0     1  0            999 V2000
   14.4090   -3.0540   -2.0370 S   0  0  0  0  0  2           0  0  0
   13.9507   -0.1231   -2.1099 O   0  0  0  0  0  2           0  0  0
    9.4115   -4.7831   -2.3965 O   0  0  0  0  0  2           0  0  0
    6.4240    1.0701   -2.6573 O   0  0  0  0  0  2           0  0  0
   11.6622   -0.3354   -2.2867 O   0  0  0  0  0  2           0  0  0
    6.8795   -3.3433   -2.6013 N   0  0  0  0  0  3           0  0  0
    5.8960   -2.4352   -2.6799 N   0  0  0  0  0  3           0  0  0
   10.5125   -2.7527   -2.3348 N   0  0  0  0  0  3           0  0  0
   12.8989   -2.2339   -2.1611 C   0  0  0  0  0  4           0  0  0
   13.6686   -4.5864   -2.0739 C   0  0  0  0  0  4           0  0  0
    8.1395   -2.8132   -2.5123 C   0  0  0  0  0  4           0  0  0
    6.5396   -1.2621   -2.6399 C   0  0  0  0  0  4           0  0  0
   11.8428   -3.1345   -2.2310 C   0  0  0  0  0  4           0  0  0
   12.3018   -4.4921   -2.1844 C   0  0  0  0  0  4           0  0  0
    7.9409   -1.4477   -2.5396 C   0  0  0  0  0  4           0  0  0
   12.9361   -0.8047   -2.1771 C   0  0  0  0  0  4           0  0  0
    9.3794   -3.5527   -2.4116 C   0  0  0  0  0  4           0  0  0
    5.8157    0.0000   -2.6953 C   0  0  0  0  0  4           0  0  0
   11.5308    1.0901   -2.3244 C   0  0  0  0  0  4           0  0  0
    4.3038   -0.0000   -2.7896 C   0  0  0  0  0  4           0  0  0
    3.6800   -0.0000   -1.3949 C   0  0  0  0  0  4           0  0  0
    2.1520    0.0000   -1.3949 C   0  0  0  0  0  4           0  0  0
    1.5281    0.0000   -0.0000 C   0  0  0  0  0  4           0  0  0
    0.0000    0.0000    0.0000 C   0  0  0  0  0  4           0  0  0
   -0.6239    0.0000    1.3949 C   0  0  0  0  0  4           0  0  0
   -2.1520   -0.0000    1.3949 C   0  0  0  0  0  4           0  0  0
   -2.7758   -0.0000    2.7899 C   0  0  0  0  0  4           0  0  0
   -4.3039   -0.0000    2.7899 C   0  0  0  0  0  4           0  0  0
   -4.9278   -0.0000    4.1848 C   0  0  0  0  0  4           0  0  0
   -6.4559   -0.0000    4.1848 C   0  0  0  0  0  4           0  0  0
   -7.0798   -0.0000    5.5797 C   0  0  0  0  0  4           0  0  0
   -8.6078   -0.0000    5.5797 C   0  0  0  0  0  4           0  0  0
   -9.2317   -0.0000    6.9747 C   0  0  0  0  0  4           0  0  0
  -10.7598   -0.0000    6.9747 C   0  0  0  0  0  4           0  0  0
  -11.3837   -0.0000    8.3696 C   0  0  0  0  0  4           0  0  0
  -12.9019   -0.0000    8.2996 C   0  0  0  0  0  4           0  0  0
  1  9  1  0     0  0
  1 10  1  0     0  0
  2 16  2  0     0  0
  3 17  2  0     0  0
  4 18  2  0     0  0
  5 16  1  0     0  0
  5 19  1  0     0  0
  6  7  1  0     0  0
  6 11  1  0     0  0
  7 12  2  0     0  0
  8 13  1  0     0  0
  8 17  1  0     0  0
  9 13  2  0     0  0
  9 16  1  0     0  0
 10 14  2  0     0  0
 11 15  2  0     0  0
 11 17  1  0     0  0
 12 15  1  0     0  0
 12 18  1  0     0  0
 13 14  1  0     0  0
 18 20  1  0     0  0
 20 21  1  0     0  0
 21 22  1  0     0  0
 22 23  1  0     0  0
 23 24  1  0     0  0
 24 25  1  0     0  0
 25 26  1  0     0  0
 26 27  1  0     0  0
 27 28  1  0     0  0
 28 29  1  0     0  0
 29 30  1  0     0  0
 30 31  1  0     0  0
 31 32  1  0     0  0
 32 33  1  0     0  0
 33 34  1  0     0  0
 34 35  1  0     0  0
 35 36  1  0     0  0
M  END
> <standard_type>
pIC50

> <# Confs.>
25

> <canonical_smiles>
COC(C1=C(NC(C2=CC(C(CCCCCCCCCCCCCCCCC)=O)=NN2)=O)C=CS1)=O

> <standard_relation>
=

> <predicted_activity_value>
5.412289034981089

> <actual_activity_value>
5.473660722610156

> <Compound>
29

> <publication_ID>
nan

> <standard_units>
nM

> hash
3967794379276762336

$$$$
29_
XXILIB    08252103423D 0   0.00000     0.00000

 36 37  0     1  0            999 V2000
    1.2661    8.5595  -11.1734 S   0  0  0  0  0  2           0  0  0
   -0.2273    9.0527   -8.6570 O   0  0  0  0  0  2           0  0  0
    3.5906    3.9471   -9.9832 O   0  0  0  0  0  2           0  0  0
    1.2094    3.2559   -3.8917 O   0  0  0  0  0  2           0  0  0
    0.5134    7.1098   -7.6619 O   0  0  0  0  0  2           0  0  0
    3.4947    2.3010   -7.5733 N   0  0  0  0  0  3           0  0  0
    3.2690    1.7681   -6.3637 N   0  0  0  0  0  3           0  0  0
    2.1703    5.4545   -8.9589 N   0  0  0  0  0  3           0  0  0
    1.2284    7.5649   -9.7669 C   0  0  0  0  0  4           0  0  0
    2.3153    7.4976  -11.9915 C   0  0  0  0  0  4           0  0  0
    2.8564    3.4916   -7.8002 C   0  0  0  0  0  4           0  0  0
    2.4493    2.6472   -5.7745 C   0  0  0  0  0  4           0  0  0
    2.0145    6.4311   -9.9327 C   0  0  0  0  0  4           0  0  0
    2.6340    6.4016  -11.2255 C   0  0  0  0  0  4           0  0  0
    2.1607    3.7367   -6.6336 C   0  0  0  0  0  4           0  0  0
    0.4285    8.0191   -8.6724 C   0  0  0  0  0  4           0  0  0
    2.9223    4.2874   -9.0071 C   0  0  0  0  0  4           0  0  0
    1.9631    2.4366   -4.4183 C   0  0  0  0  0  4           0  0  0
   -0.2451    7.4197   -6.4874 C   0  0  0  0  0  4           0  0  0
    2.3937    1.2080   -3.6438 C   0  0  0  0  0  4           0  0  0
    1.7700    1.2080   -2.2492 C   0  0  0  0  0  4           0  0  0
    2.1520   -0.0000   -1.3949 C   0  0  0  0  0  4           0  0  0
    1.5281   -0.0000    0.0000 C   0  0  0  0  0  4           0  0  0
    0.0000    0.0000    0.0000 C   0  0  0  0  0  4           0  0  0
   -0.6239    0.0000    1.3949 C   0  0  0  0  0  4           0  0  0
   -2.1520   -0.0000    1.3949 C   0  0  0  0  0  4           0  0  0
   -2.7758   -0.0000    2.7899 C   0  0  0  0  0  4           0  0  0
   -4.3039   -0.0000    2.7899 C   0  0  0  0  0  4           0  0  0
   -4.9278   -0.0000    4.1848 C   0  0  0  0  0  4           0  0  0
   -6.4559   -0.0000    4.1848 C   0  0  0  0  0  4           0  0  0
   -7.0798   -0.0000    5.5797 C   0  0  0  0  0  4           0  0  0
   -8.6078   -0.0000    5.5797 C   0  0  0  0  0  4           0  0  0
   -9.2317   -0.0000    6.9747 C   0  0  0  0  0  4           0  0  0
  -10.7598   -0.0000    6.9747 C   0  0  0  0  0  4           0  0  0
  -11.3837   -0.0000    8.3696 C   0  0  0  0  0  4           0  0  0
  -12.9019   -0.0000    8.2996 C   0  0  0  0  0  4           0  0  0
  1  9  1  0     0  0
  1 10  1  0     0  0
  2 16  2  0     0  0
  3 17  2  0     0  0
  4 18  2  0     0  0
  5 16  1  0     0  0
  5 19  1  0     0  0
  6  7  1  0     0  0
  6 11  1  0     0  0
  7 12  2  0     0  0
  8 13  1  0     0  0
  8 17  1  0     0  0
  9 13  2  0     0  0
  9 16  1  0     0  0
 10 14  2  0     0  0
 11 15  2  0     0  0
 11 17  1  0     0  0
 12 15  1  0     0  0
 12 18  1  0     0  0
 13 14  1  0     0  0
 18 20  1  0     0  0
 20 21  1  0     0  0
 21 22  1  0     0  0
 22 23  1  0     0  0
 23 24  1  0     0  0
 24 25  1  0     0  0
 25 26  1  0     0  0
 26 27  1  0     0  0
 27 28  1  0     0  0
 28 29  1  0     0  0
 29 30  1  0     0  0
 30 31  1  0     0  0
 31 32  1  0     0  0
 32 33  1  0     0  0
 33 34  1  0     0  0
 34 35  1  0     0  0
 35 36  1  0     0  0
M  END
> <standard_type>
pIC50

> <# Confs.>
25

> <canonical_smiles>
COC(C1=C(NC(C2=CC(C(CCCCCCCCCCCCCCCCC)=O)=NN2)=O)C=CS1)=O

> <standard_relation>
=

> <predicted_activity_value>
5.412289034981089

> <actual_activity_value>
5.473660722610156

> <Compound>
29

> <publication_ID>
nan

> <standard_units>
nM

> hash
3967794379276762336

$$$$
29_
XXILIB    08252103423D 0   0.00000     0.00000

 36 37  0     1  0            999 V2000
    1.0732   -8.4375  -11.2597 S   0  0  0  0  0  2           0  0  0
   -0.3502   -8.9750   -8.7120 O   0  0  0  0  0  2           0  0  0
    3.4731   -3.8728  -10.0357 O   0  0  0  0  0  2           0  0  0
    1.2094   -3.2559   -3.8917 O   0  0  0  0  0  2           0  0  0
    0.4443   -7.0661   -7.6928 O   0  0  0  0  0  2           0  0  0
    3.4512   -2.2735   -7.5927 N   0  0  0  0  0  3           0  0  0
    3.2527   -1.7578   -6.3710 N   0  0  0  0  0  3           0  0  0
    2.0638   -5.3871   -9.0065 N   0  0  0  0  0  3           0  0  0
    1.0826   -7.4728   -9.8321 C   0  0  0  0  0  4           0  0  0
    2.1078   -7.3663  -12.0843 C   0  0  0  0  0  4           0  0  0
    2.7964   -3.4536   -7.8270 C   0  0  0  0  0  4           0  0  0
    2.4332   -2.6371   -5.7817 C   0  0  0  0  0  4           0  0  0
    1.8752   -6.3430   -9.9950 C   0  0  0  0  0  4           0  0  0
    2.4663   -6.2955  -11.3005 C   0  0  0  0  0  4           0  0  0
    2.1243   -3.7137   -6.6499 C   0  0  0  0  0  4           0  0  0
    0.3116   -7.9452   -8.7246 C   0  0  0  0  0  4           0  0  0
    2.8254   -4.2262   -9.0504 C   0  0  0  0  0  4           0  0  0
    1.9631   -2.4366   -4.4183 C   0  0  0  0  0  4           0  0  0
   -0.2677   -7.4055   -6.4975 C   0  0  0  0  0  4           0  0  0
    2.3937   -1.2080   -3.6438 C   0  0  0  0  0  4           0  0  0
    1.7700   -1.2080   -2.2492 C   0  0  0  0  0  4           0  0  0
    2.1520    0.0000   -1.3949 C   0  0  0  0  0  4           0  0  0
    1.5281    0.0000   -0.0000 C   0  0  0  0  0  4           0  0  0
    0.0000    0.0000    0.0000 C   0  0  0  0  0  4           0  0  0
   -0.6239    0.0000    1.3949 C   0  0  0  0  0  4           0  0  0
   -2.1520   -0.0000    1.3949 C   0  0  0  0  0  4           0  0  0
   -2.7758   -0.0000    2.7899 C   0  0  0  0  0  4           0  0  0
   -4.3039   -0.0000    2.7899 C   0  0  0  0  0  4           0  0  0
   -4.9278   -0.0000    4.1848 C   0  0  0  0  0  4           0  0  0
   -6.4559   -0.0000    4.1848 C   0  0  0  0  0  4           0  0  0
   -7.0798   -0.0000    5.5797 C   0  0  0  0  0  4           0  0  0
   -8.6078   -0.0000    5.5797 C   0  0  0  0  0  4           0  0  0
   -9.2317   -0.0000    6.9747 C   0  0  0  0  0  4           0  0  0
  -10.7598   -0.0000    6.9747 C   0  0  0  0  0  4           0  0  0
  -11.3837   -0.0000    8.3696 C   0  0  0  0  0  4           0  0  0
  -12.9019   -0.0000    8.2996 C   0  0  0  0  0  4           0  0  0
  1  9  1  0     0  0
  1 10  1  0     0  0
  2 16  2  0     0  0
  3 17  2  0     0  0
  4 18  2  0     0  0
  5 16  1  0     0  0
  5 19  1  0     0  0
  6  7  1  0     0  0
  6 11  1  0     0  0
  7 12  2  0     0  0
  8 13  1  0     0  0
  8 17  1  0     0  0
  9 13  2  0     0  0
  9 16  1  0     0  0
 10 14  2  0     0  0
 11 15  2  0     0  0
 11 17  1  0     0  0
 12 15  1  0     0  0
 12 18  1  0     0  0
 13 14  1  0     0  0
 18 20  1  0     0  0
 20 21  1  0     0  0
 21 22  1  0     0  0
 22 23  1  0     0  0
 23 24  1  0     0  0
 24 25  1  0     0  0
 25 26  1  0     0  0
 26 27  1  0     0  0
 27 28  1  0     0  0
 28 29  1  0     0  0
 29 30  1  0     0  0
 30 31  1  0     0  0
 31 32  1  0     0  0
 32 33  1  0     0  0
 33 34  1  0     0  0
 34 35  1  0     0  0
 35 36  1  0     0  0
M  END
> <standard_type>
pIC50

> <# Confs.>
25

> <canonical_smiles>
COC(C1=C(NC(C2=CC(C(CCCCCCCCCCCCCCCCC)=O)=NN2)=O)C=CS1)=O

> <standard_relation>
=

> <predicted_activity_value>
5.412289034981089

> <actual_activity_value>
5.473660722610156

> <Compound>
29

> <publication_ID>
nan

> <standard_units>
nM

> hash
3967794379276762336

$$$$
29_
XXILIB    08252103423D 0   0.00000     0.00000

 36 37  0     1  0            999 V2000
   14.6068   -4.4483    2.7091 S   0  0  0  0  0  2           0  0  0
   13.9632   -1.9620    1.2225 O   0  0  0  0  0  2           0  0  0
    9.7140   -6.2368    3.6866 O   0  0  0  0  0  2           0  0  0
    6.3573   -1.3764    0.7946 O   0  0  0  0  0  2           0  0  0
   11.6858   -2.2862    1.3704 O   0  0  0  0  0  2           0  0  0
    7.0893   -5.1526    3.0066 N   0  0  0  0  0  3           0  0  0
    6.0483   -4.4295    2.5693 N   0  0  0  0  0  3           0  0  0
   10.6880   -4.4258    2.6330 N   0  0  0  0  0  3           0  0  0
   13.0437   -3.8360    2.3211 C   0  0  0  0  0  4           0  0  0
   13.9623   -5.8081    3.5049 C   0  0  0  0  0  4           0  0  0
    8.3170   -4.6211    2.7119 C   0  0  0  0  0  4           0  0  0
    6.6188   -3.3808    1.9636 C   0  0  0  0  0  4           0  0  0
   12.0434   -4.6735    2.8000 C   0  0  0  0  0  4           0  0  0
   12.5880   -5.8131    3.4787 C   0  0  0  0  0  4           0  0  0
    8.0325   -3.4591    2.0237 C   0  0  0  0  0  4           0  0  0
   12.9908   -2.6079    1.5910 C   0  0  0  0  0  4           0  0  0
    9.6044   -5.1816    3.0623 C   0  0  0  0  0  4           0  0  0
    5.8157   -2.3342    1.3476 C   0  0  0  0  0  4           0  0  0
   11.4638   -1.0760    0.6377 C   0  0  0  0  0  4           0  0  0
    4.3038   -2.4158    1.3948 C   0  0  0  0  0  4           0  0  0
    3.6800   -1.2080    0.6975 C   0  0  0  0  0  4           0  0  0
    2.1520   -1.2080    0.6975 C   0  0  0  0  0  4           0  0  0
    1.5281    0.0000    0.0000 C   0  0  0  0  0  4           0  0  0
    0.0000    0.0000    0.0000 C   0  0  0  0  0  4           0  0  0
   -0.6239    0.0000    1.3949 C   0  0  0  0  0  4           0  0  0
   -2.1520   -0.0000    1.3949 C   0  0  0  0  0  4           0  0  0
   -2.7758   -0.0000    2.7899 C   0  0  0  0  0  4           0  0  0
   -4.3039   -0.0000    2.7899 C   0  0  0  0  0  4           0  0  0
   -4.9278   -0.0000    4.1848 C   0  0  0  0  0  4           0  0  0
   -6.4559   -0.0000    4.1848 C   0  0  0  0  0  4           0  0  0
   -7.0798   -0.0000    5.5797 C   0  0  0  0  0  4           0  0  0
   -8.6078   -0.0000    5.5797 C   0  0  0  0  0  4           0  0  0
   -9.2317   -0.0000    6.9747 C   0  0  0  0  0  4           0  0  0
  -10.7598   -0.0000    6.9747 C   0  0  0  0  0  4           0  0  0
  -11.3837   -0.0000    8.3696 C   0  0  0  0  0  4           0  0  0
  -12.9019   -0.0000    8.2996 C   0  0  0  0  0  4           0  0  0
  1  9  1  0     0  0
  1 10  1  0     0  0
  2 16  2  0     0  0
  3 17  2  0     0  0
  4 18  2  0     0  0
  5 16  1  0     0  0
  5 19  1  0     0  0
  6  7  1  0     0  0
  6 11  1  0     0  0
  7 12  2  0     0  0
  8 13  1  0     0  0
  8 17  1  0     0  0
  9 13  2  0     0  0
  9 16  1  0     0  0
 10 14  2  0     0  0
 11 15  2  0     0  0
 11 17  1  0     0  0
 12 15  1  0     0  0
 12 18  1  0     0  0
 13 14  1  0     0  0
 18 20  1  0     0  0
 20 21  1  0     0  0
 21 22  1  0     0  0
 22 23  1  0     0  0
 23 24  1  0     0  0
 24 25  1  0     0  0
 25 26  1  0     0  0
 26 27  1  0     0  0
 27 28  1  0     0  0
 28 29  1  0     0  0
 29 30  1  0     0  0
 30 31  1  0     0  0
 31 32  1  0     0  0
 32 33  1  0     0  0
 33 34  1  0     0  0
 34 35  1  0     0  0
 35 36  1  0     0  0
M  END
> <standard_type>
pIC50

> <# Confs.>
25

> <canonical_smiles>
COC(C1=C(NC(C2=CC(C(CCCCCCCCCCCCCCCCC)=O)=NN2)=O)C=CS1)=O

> <standard_relation>
=

> <predicted_activity_value>
5.412289034981089

> <actual_activity_value>
5.473660722610156

> <Compound>
29

> <publication_ID>
nan

> <standard_units>
nM

> hash
3967794379276762336

$$$$
29_
XXILIB    08252103423D 0   0.00000     0.00000

 36 37  0     1  0            999 V2000
   14.6068   -0.1220   -5.2069 S   0  0  0  0  0  2           0  0  0
   13.9632   -0.0777   -2.3104 O   0  0  0  0  0  2           0  0  0
    9.7140   -0.0743   -7.2445 O   0  0  0  0  0  2           0  0  0
    6.3573   -0.0000   -1.5893 O   0  0  0  0  0  2           0  0  0
   11.6858   -0.0437   -2.6651 O   0  0  0  0  0  2           0  0  0
    7.0893   -0.0275   -5.9656 N   0  0  0  0  0  3           0  0  0
    6.0483   -0.0103   -5.1207 N   0  0  0  0  0  3           0  0  0
   10.6880   -0.0673   -5.1494 N   0  0  0  0  0  3           0  0  0
   13.0437   -0.0922   -4.4826 C   0  0  0  0  0  4           0  0  0
   13.9623   -0.1312   -6.7824 C   0  0  0  0  0  4           0  0  0
    8.3170   -0.0380   -5.3579 C   0  0  0  0  0  4           0  0  0
    6.6188   -0.0101   -3.9097 C   0  0  0  0  0  4           0  0  0
   12.0434   -0.0881   -5.4473 C   0  0  0  0  0  4           0  0  0
   12.5880   -0.1061   -6.7737 C   0  0  0  0  0  4           0  0  0
    8.0325   -0.0230   -4.0075 C   0  0  0  0  0  4           0  0  0
   12.9908   -0.0739   -3.0540 C   0  0  0  0  0  4           0  0  0
    9.6044   -0.0612   -6.0185 C   0  0  0  0  0  4           0  0  0
    5.8157    0.0000   -2.6953 C   0  0  0  0  0  4           0  0  0
   11.4638   -0.0143   -1.2507 C   0  0  0  0  0  4           0  0  0
    4.3038    0.0000   -2.7896 C   0  0  0  0  0  4           0  0  0
    3.6800    0.0000   -1.3949 C   0  0  0  0  0  4           0  0  0
    2.1520    0.0000   -1.3949 C   0  0  0  0  0  4           0  0  0
    1.5281   -0.0000   -0.0000 C   0  0  0  0  0  4           0  0  0
    0.0000   -0.0000    0.0000 C   0  0  0  0  0  4           0  0  0
   -0.6239   -0.0000    1.3949 C   0  0  0  0  0  4           0  0  0
   -0.2419    1.2080    2.2492 C   0  0  0  0  0  4           0  0  0
   -0.8658    1.2080    3.6441 C   0  0  0  0  0  4           0  0  0
   -0.4838    2.4161    4.4984 C   0  0  0  0  0  4           0  0  0
   -1.1077    2.4161    5.8933 C   0  0  0  0  0  4           0  0  0
   -0.7257    3.6241    6.7476 C   0  0  0  0  0  4           0  0  0
   -1.3496    3.6241    8.1425 C   0  0  0  0  0  4           0  0  0
   -0.9676    4.8322    8.9968 C   0  0  0  0  0  4           0  0  0
   -1.5914    4.8322   10.3917 C   0  0  0  0  0  4           0  0  0
   -1.2095    6.0402   11.2460 C   0  0  0  0  0  4           0  0  0
   -1.8333    6.0402   12.6409 C   0  0  0  0  0  4           0  0  0
   -1.4147    7.2652   13.4372 C   0  0  0  0  0  4           0  0  0
  1  9  1  0     0  0
  1 10  1  0     0  0
  2 16  2  0     0  0
  3 17  2  0     0  0
  4 18  2  0     0  0
  5 16  1  0     0  0
  5 19  1  0     0  0
  6  7  1  0     0  0
  6 11  1  0     0  0
  7 12  2  0     0  0
  8 13  1  0     0  0
  8 17  1  0     0  0
  9 13  2  0     0  0
  9 16  1  0     0  0
 10 14  2  0     0  0
 11 15  2  0     0  0
 11 17  1  0     0  0
 12 15  1  0     0  0
 12 18  1  0     0  0
 13 14  1  0     0  0
 18 20  1  0     0  0
 20 21  1  0     0  0
 21 22  1  0     0  0
 22 23  1  0     0  0
 23 24  1  0     0  0
 24 25  1  0     0  0
 25 26  1  0     0  0
 26 27  1  0     0  0
 27 28  1  0     0  0
 28 29  1  0     0  0
 29 30  1  0     0  0
 30 31  1  0     0  0
 31 32  1  0     0  0
 32 33  1  0     0  0
 33 34  1  0     0  0
 34 35  1  0     0  0
 35 36  1  0     0  0
M  END
> <standard_type>
pIC50

> <# Confs.>
25

> <canonical_smiles>
COC(C1=C(NC(C2=CC(C(CCCCCCCCCCCCCCCCC)=O)=NN2)=O)C=CS1)=O

> <standard_relation>
=

> <predicted_activity_value>
5.412289034981089

> <actual_activity_value>
5.473660722610156

> <Compound>
29

> <publication_ID>
nan

> <standard_units>
nM

> hash
3967794379276762336

$$$$
29_
XXILIB    08252103423D 0   0.00000     0.00000

 36 37  0     1  0            999 V2000
   14.6068   -0.1220   -5.2069 S   0  0  0  0  0  2           0  0  0
   13.9632   -0.0777   -2.3104 O   0  0  0  0  0  2           0  0  0
    9.7140   -0.0743   -7.2445 O   0  0  0  0  0  2           0  0  0
    6.3573   -0.0000   -1.5893 O   0  0  0  0  0  2           0  0  0
   11.6858   -0.0437   -2.6651 O   0  0  0  0  0  2           0  0  0
    7.0893   -0.0275   -5.9656 N   0  0  0  0  0  3           0  0  0
    6.0483   -0.0103   -5.1207 N   0  0  0  0  0  3           0  0  0
   10.6880   -0.0673   -5.1494 N   0  0  0  0  0  3           0  0  0
   13.0437   -0.0922   -4.4826 C   0  0  0  0  0  4           0  0  0
   13.9623   -0.1312   -6.7824 C   0  0  0  0  0  4           0  0  0
    8.3170   -0.0380   -5.3579 C   0  0  0  0  0  4           0  0  0
    6.6188   -0.0101   -3.9097 C   0  0  0  0  0  4           0  0  0
   12.0434   -0.0881   -5.4473 C   0  0  0  0  0  4           0  0  0
   12.5880   -0.1061   -6.7737 C   0  0  0  0  0  4           0  0  0
    8.0325   -0.0230   -4.0075 C   0  0  0  0  0  4           0  0  0
   12.9908   -0.0739   -3.0540 C   0  0  0  0  0  4           0  0  0
    9.6044   -0.0612   -6.0185 C   0  0  0  0  0  4           0  0  0
    5.8157    0.0000   -2.6953 C   0  0  0  0  0  4           0  0  0
   11.4638   -0.0143   -1.2507 C   0  0  0  0  0  4           0  0  0
    4.3038    0.0000   -2.7896 C   0  0  0  0  0  4           0  0  0
    3.6800    0.0000   -1.3949 C   0  0  0  0  0  4           0  0  0
    2.1520    0.0000   -1.3949 C   0  0  0  0  0  4           0  0  0
    1.5281   -0.0000   -0.0000 C   0  0  0  0  0  4           0  0  0
    0.0000    0.0000    0.0000 C   0  0  0  0  0  4           0  0  0
   -0.6239    0.0000    1.3949 C   0  0  0  0  0  4           0  0  0
   -2.1520   -0.0000    1.3949 C   0  0  0  0  0  4           0  0  0
   -2.7758   -1.2080    0.6975 C   0  0  0  0  0  4           0  0  0
   -4.3039   -1.2080    0.6975 C   0  0  0  0  0  4           0  0  0
   -4.9278   -2.4161   -0.0000 C   0  0  0  0  0  4           0  0  0
   -6.4559   -2.4161   -0.0000 C   0  0  0  0  0  4           0  0  0
   -7.0798   -3.6241   -0.6975 C   0  0  0  0  0  4           0  0  0
   -8.6078   -3.6241   -0.6975 C   0  0  0  0  0  4           0  0  0
   -9.2317   -4.8322   -1.3949 C   0  0  0  0  0  4           0  0  0
  -10.7598   -4.8322   -1.3949 C   0  0  0  0  0  4           0  0  0
  -11.3837   -6.0402   -2.0924 C   0  0  0  0  0  4           0  0  0
  -12.9019   -5.9796   -2.0574 C   0  0  0  0  0  4           0  0  0
  1  9  1  0     0  0
  1 10  1  0     0  0
  2 16  2  0     0  0
  3 17  2  0     0  0
  4 18  2  0     0  0
  5 16  1  0     0  0
  5 19  1  0     0  0
  6  7  1  0     0  0
  6 11  1  0     0  0
  7 12  2  0     0  0
  8 13  1  0     0  0
  8 17  1  0     0  0
  9 13  2  0     0  0
  9 16  1  0     0  0
 10 14  2  0     0  0
 11 15  2  0     0  0
 11 17  1  0     0  0
 12 15  1  0     0  0
 12 18  1  0     0  0
 13 14  1  0     0  0
 18 20  1  0     0  0
 20 21  1  0     0  0
 21 22  1  0     0  0
 22 23  1  0     0  0
 23 24  1  0     0  0
 24 25  1  0     0  0
 25 26  1  0     0  0
 26 27  1  0     0  0
 27 28  1  0     0  0
 28 29  1  0     0  0
 29 30  1  0     0  0
 30 31  1  0     0  0
 31 32  1  0     0  0
 32 33  1  0     0  0
 33 34  1  0     0  0
 34 35  1  0     0  0
 35 36  1  0     0  0
M  END
> <standard_type>
pIC50

> <# Confs.>
25

> <canonical_smiles>
COC(C1=C(NC(C2=CC(C(CCCCCCCCCCCCCCCCC)=O)=NN2)=O)C=CS1)=O

> <standard_relation>
=

> <predicted_activity_value>
5.412289034981089

> <actual_activity_value>
5.473660722610156

> <Compound>
29

> <publication_ID>
nan

> <standard_units>
nM

> hash
3967794379276762336

$$$$
29_
XXILIB    08252103423D 0   0.00000     0.00000

 36 37  0     1  0            999 V2000
   14.6068   -0.1220   -5.2069 S   0  0  0  0  0  2           0  0  0
   13.9632   -0.0777   -2.3104 O   0  0  0  0  0  2           0  0  0
    9.7140   -0.0743   -7.2445 O   0  0  0  0  0  2           0  0  0
    6.3573   -0.0000   -1.5893 O   0  0  0  0  0  2           0  0  0
   11.6858   -0.0437   -2.6651 O   0  0  0  0  0  2           0  0  0
    7.0893   -0.0275   -5.9656 N   0  0  0  0  0  3           0  0  0
    6.0483   -0.0103   -5.1207 N   0  0  0  0  0  3           0  0  0
   10.6880   -0.0673   -5.1494 N   0  0  0  0  0  3           0  0  0
   13.0437   -0.0922   -4.4826 C   0  0  0  0  0  4           0  0  0
   13.9623   -0.1312   -6.7824 C   0  0  0  0  0  4           0  0  0
    8.3170   -0.0380   -5.3579 C   0  0  0  0  0  4           0  0  0
    6.6188   -0.0101   -3.9097 C   0  0  0  0  0  4           0  0  0
   12.0434   -0.0881   -5.4473 C   0  0  0  0  0  4           0  0  0
   12.5880   -0.1061   -6.7737 C   0  0  0  0  0  4           0  0  0
    8.0325   -0.0230   -4.0075 C   0  0  0  0  0  4           0  0  0
   12.9908   -0.0739   -3.0540 C   0  0  0  0  0  4           0  0  0
    9.6044   -0.0612   -6.0185 C   0  0  0  0  0  4           0  0  0
    5.8157    0.0000   -2.6953 C   0  0  0  0  0  4           0  0  0
   11.4638   -0.0143   -1.2507 C   0  0  0  0  0  4           0  0  0
    4.3038    0.0000   -2.7896 C   0  0  0  0  0  4           0  0  0
    3.6800    0.0000   -1.3949 C   0  0  0  0  0  4           0  0  0
    2.1520    0.0000   -1.3949 C   0  0  0  0  0  4           0  0  0
    1.5281   -0.0000   -0.0000 C   0  0  0  0  0  4           0  0  0
    0.0000   -0.0000    0.0000 C   0  0  0  0  0  4           0  0  0
   -0.6239    0.0000    1.3949 C   0  0  0  0  0  4           0  0  0
   -2.1520   -0.0000    1.3949 C   0  0  0  0  0  4           0  0  0
   -2.7758    0.0000    2.7899 C   0  0  0  0  0  4           0  0  0
   -2.3939    1.2080    3.6441 C   0  0  0  0  0  4           0  0  0
   -3.0177    1.2080    5.0391 C   0  0  0  0  0  4           0  0  0
   -2.6357    2.4161    5.8933 C   0  0  0  0  0  4           0  0  0
   -3.2596    2.4161    7.2883 C   0  0  0  0  0  4           0  0  0
   -2.8776    3.6241    8.1425 C   0  0  0  0  0  4           0  0  0
   -3.5015    3.6241    9.5375 C   0  0  0  0  0  4           0  0  0
   -3.1195    4.8322   10.3917 C   0  0  0  0  0  4           0  0  0
   -3.7434    4.8322   11.7866 C   0  0  0  0  0  4           0  0  0
   -3.3248    6.0572   12.5829 C   0  0  0  0  0  4           0  0  0
  1  9  1  0     0  0
  1 10  1  0     0  0
  2 16  2  0     0  0
  3 17  2  0     0  0
  4 18  2  0     0  0
  5 16  1  0     0  0
  5 19  1  0     0  0
  6  7  1  0     0  0
  6 11  1  0     0  0
  7 12  2  0     0  0
  8 13  1  0     0  0
  8 17  1  0     0  0
  9 13  2  0     0  0
  9 16  1  0     0  0
 10 14  2  0     0  0
 11 15  2  0     0  0
 11 17  1  0     0  0
 12 15  1  0     0  0
 12 18  1  0     0  0
 13 14  1  0     0  0
 18 20  1  0     0  0
 20 21  1  0     0  0
 21 22  1  0     0  0
 22 23  1  0     0  0
 23 24  1  0     0  0
 24 25  1  0     0  0
 25 26  1  0     0  0
 26 27  1  0     0  0
 27 28  1  0     0  0
 28 29  1  0     0  0
 29 30  1  0     0  0
 30 31  1  0     0  0
 31 32  1  0     0  0
 32 33  1  0     0  0
 33 34  1  0     0  0
 34 35  1  0     0  0
 35 36  1  0     0  0
M  END
> <standard_type>
pIC50

> <# Confs.>
25

> <canonical_smiles>
COC(C1=C(NC(C2=CC(C(CCCCCCCCCCCCCCCCC)=O)=NN2)=O)C=CS1)=O

> <standard_relation>
=

> <predicted_activity_value>
5.412289034981089

> <actual_activity_value>
5.473660722610156

> <Compound>
29

> <publication_ID>
nan

> <standard_units>
nM

> hash
3967794379276762336

$$$$
29_
XXILIB    08252103423D 0   0.00000     0.00000

 36 37  0     1  0            999 V2000
   14.6068   -0.1220   -5.2069 S   0  0  0  0  0  2           0  0  0
   13.9632   -0.0777   -2.3104 O   0  0  0  0  0  2           0  0  0
    9.7140   -0.0743   -7.2445 O   0  0  0  0  0  2           0  0  0
    6.3573   -0.0000   -1.5893 O   0  0  0  0  0  2           0  0  0
   11.6858   -0.0437   -2.6651 O   0  0  0  0  0  2           0  0  0
    7.0893   -0.0275   -5.9656 N   0  0  0  0  0  3           0  0  0
    6.0483   -0.0103   -5.1207 N   0  0  0  0  0  3           0  0  0
   10.6880   -0.0673   -5.1494 N   0  0  0  0  0  3           0  0  0
   13.0437   -0.0922   -4.4826 C   0  0  0  0  0  4           0  0  0
   13.9623   -0.1312   -6.7824 C   0  0  0  0  0  4           0  0  0
    8.3170   -0.0380   -5.3579 C   0  0  0  0  0  4           0  0  0
    6.6188   -0.0101   -3.9097 C   0  0  0  0  0  4           0  0  0
   12.0434   -0.0881   -5.4473 C   0  0  0  0  0  4           0  0  0
   12.5880   -0.1061   -6.7737 C   0  0  0  0  0  4           0  0  0
    8.0325   -0.0230   -4.0075 C   0  0  0  0  0  4           0  0  0
   12.9908   -0.0739   -3.0540 C   0  0  0  0  0  4           0  0  0
    9.6044   -0.0612   -6.0185 C   0  0  0  0  0  4           0  0  0
    5.8157    0.0000   -2.6953 C   0  0  0  0  0  4           0  0  0
   11.4638   -0.0143   -1.2507 C   0  0  0  0  0  4           0  0  0
    4.3038    0.0000   -2.7896 C   0  0  0  0  0  4           0  0  0
    3.6800    0.0000   -1.3949 C   0  0  0  0  0  4           0  0  0
    2.1520    0.0000   -1.3949 C   0  0  0  0  0  4           0  0  0
    1.5281   -0.0000   -0.0000 C   0  0  0  0  0  4           0  0  0
    0.0000    0.0000    0.0000 C   0  0  0  0  0  4           0  0  0
   -0.6239   -0.0000    1.3949 C   0  0  0  0  0  4           0  0  0
   -2.1520   -0.0000    1.3949 C   0  0  0  0  0  4           0  0  0
   -2.7758   -0.0000    2.7899 C   0  0  0  0  0  4           0  0  0
   -4.3039   -0.0000    2.7899 C   0  0  0  0  0  4           0  0  0
   -4.9278   -1.2080    2.0924 C   0  0  0  0  0  4           0  0  0
   -6.4559   -1.2080    2.0924 C   0  0  0  0  0  4           0  0  0
   -7.0798   -2.4161    1.3949 C   0  0  0  0  0  4           0  0  0
   -8.6078   -2.4161    1.3949 C   0  0  0  0  0  4           0  0  0
   -9.2317   -3.6241    0.6975 C   0  0  0  0  0  4           0  0  0
  -10.7598   -3.6241    0.6975 C   0  0  0  0  0  4           0  0  0
  -11.3837   -4.8322    0.0000 C   0  0  0  0  0  4           0  0  0
  -12.9019   -4.7716    0.0350 C   0  0  0  0  0  4           0  0  0
  1  9  1  0     0  0
  1 10  1  0     0  0
  2 16  2  0     0  0
  3 17  2  0     0  0
  4 18  2  0     0  0
  5 16  1  0     0  0
  5 19  1  0     0  0
  6  7  1  0     0  0
  6 11  1  0     0  0
  7 12  2  0     0  0
  8 13  1  0     0  0
  8 17  1  0     0  0
  9 13  2  0     0  0
  9 16  1  0     0  0
 10 14  2  0     0  0
 11 15  2  0     0  0
 11 17  1  0     0  0
 12 15  1  0     0  0
 12 18  1  0     0  0
 13 14  1  0     0  0
 18 20  1  0     0  0
 20 21  1  0     0  0
 21 22  1  0     0  0
 22 23  1  0     0  0
 23 24  1  0     0  0
 24 25  1  0     0  0
 25 26  1  0     0  0
 26 27  1  0     0  0
 27 28  1  0     0  0
 28 29  1  0     0  0
 29 30  1  0     0  0
 30 31  1  0     0  0
 31 32  1  0     0  0
 32 33  1  0     0  0
 33 34  1  0     0  0
 34 35  1  0     0  0
 35 36  1  0     0  0
M  END
> <standard_type>
pIC50

> <# Confs.>
25

> <canonical_smiles>
COC(C1=C(NC(C2=CC(C(CCCCCCCCCCCCCCCCC)=O)=NN2)=O)C=CS1)=O

> <standard_relation>
=

> <predicted_activity_value>
5.412289034981089

> <actual_activity_value>
5.473660722610156

> <Compound>
29

> <publication_ID>
nan

> <standard_units>
nM

> hash
3967794379276762336

$$$$
29_
XXILIB    08252103423D 0   0.00000     0.00000

 36 37  0     1  0            999 V2000
   14.6068   -0.1220   -5.2069 S   0  0  0  0  0  2           0  0  0
   13.9632   -0.0777   -2.3104 O   0  0  0  0  0  2           0  0  0
    9.7140   -0.0743   -7.2445 O   0  0  0  0  0  2           0  0  0
    6.3573   -0.0000   -1.5893 O   0  0  0  0  0  2           0  0  0
   11.6858   -0.0437   -2.6651 O   0  0  0  0  0  2           0  0  0
    7.0893   -0.0275   -5.9656 N   0  0  0  0  0  3           0  0  0
    6.0483   -0.0103   -5.1207 N   0  0  0  0  0  3           0  0  0
   10.6880   -0.0673   -5.1494 N   0  0  0  0  0  3           0  0  0
   13.0437   -0.0922   -4.4826 C   0  0  0  0  0  4           0  0  0
   13.9623   -0.1312   -6.7824 C   0  0  0  0  0  4           0  0  0
    8.3170   -0.0380   -5.3579 C   0  0  0  0  0  4           0  0  0
    6.6188   -0.0101   -3.9097 C   0  0  0  0  0  4           0  0  0
   12.0434   -0.0881   -5.4473 C   0  0  0  0  0  4           0  0  0
   12.5880   -0.1061   -6.7737 C   0  0  0  0  0  4           0  0  0
    8.0325   -0.0230   -4.0075 C   0  0  0  0  0  4           0  0  0
   12.9908   -0.0739   -3.0540 C   0  0  0  0  0  4           0  0  0
    9.6044   -0.0612   -6.0185 C   0  0  0  0  0  4           0  0  0
    5.8157    0.0000   -2.6953 C   0  0  0  0  0  4           0  0  0
   11.4638   -0.0143   -1.2507 C   0  0  0  0  0  4           0  0  0
    4.3038    0.0000   -2.7896 C   0  0  0  0  0  4           0  0  0
    3.6800    0.0000   -1.3949 C   0  0  0  0  0  4           0  0  0
    2.1520    0.0000   -1.3949 C   0  0  0  0  0  4           0  0  0
    1.5281   -0.0000   -0.0000 C   0  0  0  0  0  4           0  0  0
    0.0000   -0.0000    0.0000 C   0  0  0  0  0  4           0  0  0
   -0.6239    0.0000    1.3949 C   0  0  0  0  0  4           0  0  0
   -2.1520   -0.0000    1.3949 C   0  0  0  0  0  4           0  0  0
   -2.7758    0.0000    2.7899 C   0  0  0  0  0  4           0  0  0
   -4.3039    0.0000    2.7899 C   0  0  0  0  0  4           0  0  0
   -4.9278    0.0000    4.1848 C   0  0  0  0  0  4           0  0  0
   -4.5458    1.2080    5.0391 C   0  0  0  0  0  4           0  0  0
   -5.1697    1.2080    6.4340 C   0  0  0  0  0  4           0  0  0
   -4.7877    2.4161    7.2883 C   0  0  0  0  0  4           0  0  0
   -5.4116    2.4161    8.6832 C   0  0  0  0  0  4           0  0  0
   -5.0296    3.6241    9.5375 C   0  0  0  0  0  4           0  0  0
   -5.6535    3.6241   10.9324 C   0  0  0  0  0  4           0  0  0
   -5.2348    4.8492   11.7287 C   0  0  0  0  0  4           0  0  0
  1  9  1  0     0  0
  1 10  1  0     0  0
  2 16  2  0     0  0
  3 17  2  0     0  0
  4 18  2  0     0  0
  5 16  1  0     0  0
  5 19  1  0     0  0
  6  7  1  0     0  0
  6 11  1  0     0  0
  7 12  2  0     0  0
  8 13  1  0     0  0
  8 17  1  0     0  0
  9 13  2  0     0  0
  9 16  1  0     0  0
 10 14  2  0     0  0
 11 15  2  0     0  0
 11 17  1  0     0  0
 12 15  1  0     0  0
 12 18  1  0     0  0
 13 14  1  0     0  0
 18 20  1  0     0  0
 20 21  1  0     0  0
 21 22  1  0     0  0
 22 23  1  0     0  0
 23 24  1  0     0  0
 24 25  1  0     0  0
 25 26  1  0     0  0
 26 27  1  0     0  0
 27 28  1  0     0  0
 28 29  1  0     0  0
 29 30  1  0     0  0
 30 31  1  0     0  0
 31 32  1  0     0  0
 32 33  1  0     0  0
 33 34  1  0     0  0
 34 35  1  0     0  0
 35 36  1  0     0  0
M  END
> <standard_type>
pIC50

> <# Confs.>
25

> <canonical_smiles>
COC(C1=C(NC(C2=CC(C(CCCCCCCCCCCCCCCCC)=O)=NN2)=O)C=CS1)=O

> <standard_relation>
=

> <predicted_activity_value>
5.412289034981089

> <actual_activity_value>
5.473660722610156

> <Compound>
29

> <publication_ID>
nan

> <standard_units>
nM

> hash
3967794379276762336

$$$$
29_
XXILIB    08252103423D 0   0.00000     0.00000

 36 37  0     1  0            999 V2000
   14.6068   -0.1220   -5.2069 S   0  0  0  0  0  2           0  0  0
   13.9632   -0.0777   -2.3104 O   0  0  0  0  0  2           0  0  0
    9.7140   -0.0743   -7.2445 O   0  0  0  0  0  2           0  0  0
    6.3573   -0.0000   -1.5893 O   0  0  0  0  0  2           0  0  0
   11.6858   -0.0437   -2.6651 O   0  0  0  0  0  2           0  0  0
    7.0893   -0.0275   -5.9656 N   0  0  0  0  0  3           0  0  0
    6.0483   -0.0103   -5.1207 N   0  0  0  0  0  3           0  0  0
   10.6880   -0.0673   -5.1494 N   0  0  0  0  0  3           0  0  0
   13.0437   -0.0922   -4.4826 C   0  0  0  0  0  4           0  0  0
   13.9623   -0.1312   -6.7824 C   0  0  0  0  0  4           0  0  0
    8.3170   -0.0380   -5.3579 C   0  0  0  0  0  4           0  0  0
    6.6188   -0.0101   -3.9097 C   0  0  0  0  0  4           0  0  0
   12.0434   -0.0881   -5.4473 C   0  0  0  0  0  4           0  0  0
   12.5880   -0.1061   -6.7737 C   0  0  0  0  0  4           0  0  0
    8.0325   -0.0230   -4.0075 C   0  0  0  0  0  4           0  0  0
   12.9908   -0.0739   -3.0540 C   0  0  0  0  0  4           0  0  0
    9.6044   -0.0612   -6.0185 C   0  0  0  0  0  4           0  0  0
    5.8157    0.0000   -2.6953 C   0  0  0  0  0  4           0  0  0
   11.4638   -0.0143   -1.2507 C   0  0  0  0  0  4           0  0  0
    4.3038    0.0000   -2.7896 C   0  0  0  0  0  4           0  0  0
    3.6800    0.0000   -1.3949 C   0  0  0  0  0  4           0  0  0
    2.1520    0.0000   -1.3949 C   0  0  0  0  0  4           0  0  0
    1.5281   -0.0000   -0.0000 C   0  0  0  0  0  4           0  0  0
    0.0000    0.0000    0.0000 C   0  0  0  0  0  4           0  0  0
   -0.6239    0.0000    1.3949 C   0  0  0  0  0  4           0  0  0
   -2.1520   -0.0000    1.3949 C   0  0  0  0  0  4           0  0  0
   -2.7758   -0.0000    2.7899 C   0  0  0  0  0  4           0  0  0
   -4.3039   -0.0000    2.7899 C   0  0  0  0  0  4           0  0  0
   -4.9278   -0.0000    4.1848 C   0  0  0  0  0  4           0  0  0
   -6.4559   -0.0000    4.1848 C   0  0  0  0  0  4           0  0  0
   -7.0798   -1.2080    3.4873 C   0  0  0  0  0  4           0  0  0
   -8.6078   -1.2080    3.4873 C   0  0  0  0  0  4           0  0  0
   -9.2317   -2.4161    2.7899 C   0  0  0  0  0  4           0  0  0
  -10.7598   -2.4161    2.7899 C   0  0  0  0  0  4           0  0  0
  -11.3837   -3.6241    2.0924 C   0  0  0  0  0  4           0  0  0
  -12.9019   -3.5635    2.1274 C   0  0  0  0  0  4           0  0  0
  1  9  1  0     0  0
  1 10  1  0     0  0
  2 16  2  0     0  0
  3 17  2  0     0  0
  4 18  2  0     0  0
  5 16  1  0     0  0
  5 19  1  0     0  0
  6  7  1  0     0  0
  6 11  1  0     0  0
  7 12  2  0     0  0
  8 13  1  0     0  0
  8 17  1  0     0  0
  9 13  2  0     0  0
  9 16  1  0     0  0
 10 14  2  0     0  0
 11 15  2  0     0  0
 11 17  1  0     0  0
 12 15  1  0     0  0
 12 18  1  0     0  0
 13 14  1  0     0  0
 18 20  1  0     0  0
 20 21  1  0     0  0
 21 22  1  0     0  0
 22 23  1  0     0  0
 23 24  1  0     0  0
 24 25  1  0     0  0
 25 26  1  0     0  0
 26 27  1  0     0  0
 27 28  1  0     0  0
 28 29  1  0     0  0
 29 30  1  0     0  0
 30 31  1  0     0  0
 31 32  1  0     0  0
 32 33  1  0     0  0
 33 34  1  0     0  0
 34 35  1  0     0  0
 35 36  1  0     0  0
M  END
> <standard_type>
pIC50

> <# Confs.>
25

> <canonical_smiles>
COC(C1=C(NC(C2=CC(C(CCCCCCCCCCCCCCCCC)=O)=NN2)=O)C=CS1)=O

> <standard_relation>
=

> <predicted_activity_value>
5.412289034981089

> <actual_activity_value>
5.473660722610156

> <Compound>
29

> <publication_ID>
nan

> <standard_units>
nM

> hash
3967794379276762336

$$$$
29_
XXILIB    08252103423D 0   0.00000     0.00000

 36 37  0     1  0            999 V2000
   14.6068   -0.1220   -5.2069 S   0  0  0  0  0  2           0  0  0
   13.9632   -0.0777   -2.3104 O   0  0  0  0  0  2           0  0  0
    9.7140   -0.0743   -7.2445 O   0  0  0  0  0  2           0  0  0
    6.3573   -0.0000   -1.5893 O   0  0  0  0  0  2           0  0  0
   11.6858   -0.0437   -2.6651 O   0  0  0  0  0  2           0  0  0
    7.0893   -0.0275   -5.9656 N   0  0  0  0  0  3           0  0  0
    6.0483   -0.0103   -5.1207 N   0  0  0  0  0  3           0  0  0
   10.6880   -0.0673   -5.1494 N   0  0  0  0  0  3           0  0  0
   13.0437   -0.0922   -4.4826 C   0  0  0  0  0  4           0  0  0
   13.9623   -0.1312   -6.7824 C   0  0  0  0  0  4           0  0  0
    8.3170   -0.0380   -5.3579 C   0  0  0  0  0  4           0  0  0
    6.6188   -0.0101   -3.9097 C   0  0  0  0  0  4           0  0  0
   12.0434   -0.0881   -5.4473 C   0  0  0  0  0  4           0  0  0
   12.5880   -0.1061   -6.7737 C   0  0  0  0  0  4           0  0  0
    8.0325   -0.0230   -4.0075 C   0  0  0  0  0  4           0  0  0
   12.9908   -0.0739   -3.0540 C   0  0  0  0  0  4           0  0  0
    9.6044   -0.0612   -6.0185 C   0  0  0  0  0  4           0  0  0
    5.8157    0.0000   -2.6953 C   0  0  0  0  0  4           0  0  0
   11.4638   -0.0143   -1.2507 C   0  0  0  0  0  4           0  0  0
    4.3038    0.0000   -2.7896 C   0  0  0  0  0  4           0  0  0
    3.6800    0.0000   -1.3949 C   0  0  0  0  0  4           0  0  0
    2.1520    0.0000   -1.3949 C   0  0  0  0  0  4           0  0  0
    1.5281   -0.0000   -0.0000 C   0  0  0  0  0  4           0  0  0
    0.0000    0.0000    0.0000 C   0  0  0  0  0  4           0  0  0
   -0.6239    0.0000    1.3949 C   0  0  0  0  0  4           0  0  0
   -2.1520   -0.0000    1.3949 C   0  0  0  0  0  4           0  0  0
   -2.7758   -0.0000    2.7899 C   0  0  0  0  0  4           0  0  0
   -4.3039   -0.0000    2.7899 C   0  0  0  0  0  4           0  0  0
   -4.9278   -0.0000    4.1848 C   0  0  0  0  0  4           0  0  0
   -6.4559   -0.0000    4.1848 C   0  0  0  0  0  4           0  0  0
   -7.0798   -0.0000    5.5797 C   0  0  0  0  0  4           0  0  0
   -6.6978    1.2080    6.4340 C   0  0  0  0  0  4           0  0  0
   -7.3217    1.2080    7.8289 C   0  0  0  0  0  4           0  0  0
   -6.9397    2.4161    8.6832 C   0  0  0  0  0  4           0  0  0
   -7.5635    2.4161   10.0781 C   0  0  0  0  0  4           0  0  0
   -7.1449    3.6411   10.8744 C   0  0  0  0  0  4           0  0  0
  1  9  1  0     0  0
  1 10  1  0     0  0
  2 16  2  0     0  0
  3 17  2  0     0  0
  4 18  2  0     0  0
  5 16  1  0     0  0
  5 19  1  0     0  0
  6  7  1  0     0  0
  6 11  1  0     0  0
  7 12  2  0     0  0
  8 13  1  0     0  0
  8 17  1  0     0  0
  9 13  2  0     0  0
  9 16  1  0     0  0
 10 14  2  0     0  0
 11 15  2  0     0  0
 11 17  1  0     0  0
 12 15  1  0     0  0
 12 18  1  0     0  0
 13 14  1  0     0  0
 18 20  1  0     0  0
 20 21  1  0     0  0
 21 22  1  0     0  0
 22 23  1  0     0  0
 23 24  1  0     0  0
 24 25  1  0     0  0
 25 26  1  0     0  0
 26 27  1  0     0  0
 27 28  1  0     0  0
 28 29  1  0     0  0
 29 30  1  0     0  0
 30 31  1  0     0  0
 31 32  1  0     0  0
 32 33  1  0     0  0
 33 34  1  0     0  0
 34 35  1  0     0  0
 35 36  1  0     0  0
M  END
> <standard_type>
pIC50

> <# Confs.>
25

> <canonical_smiles>
COC(C1=C(NC(C2=CC(C(CCCCCCCCCCCCCCCCC)=O)=NN2)=O)C=CS1)=O

> <standard_relation>
=

> <predicted_activity_value>
5.412289034981089

> <actual_activity_value>
5.473660722610156

> <Compound>
29

> <publication_ID>
nan

> <standard_units>
nM

> hash
3967794379276762336

$$$$
29_
XXILIB    08252103423D 0   0.00000     0.00000

 36 37  0     1  0            999 V2000
   14.6068   -0.1220   -5.2069 S   0  0  0  0  0  2           0  0  0
   13.9632   -0.0777   -2.3104 O   0  0  0  0  0  2           0  0  0
    9.7140   -0.0743   -7.2445 O   0  0  0  0  0  2           0  0  0
    6.3573   -0.0000   -1.5893 O   0  0  0  0  0  2           0  0  0
   11.6858   -0.0437   -2.6651 O   0  0  0  0  0  2           0  0  0
    7.0893   -0.0275   -5.9656 N   0  0  0  0  0  3           0  0  0
    6.0483   -0.0103   -5.1207 N   0  0  0  0  0  3           0  0  0
   10.6880   -0.0673   -5.1494 N   0  0  0  0  0  3           0  0  0
   13.0437   -0.0922   -4.4826 C   0  0  0  0  0  4           0  0  0
   13.9623   -0.1312   -6.7824 C   0  0  0  0  0  4           0  0  0
    8.3170   -0.0380   -5.3579 C   0  0  0  0  0  4           0  0  0
    6.6188   -0.0101   -3.9097 C   0  0  0  0  0  4           0  0  0
   12.0434   -0.0881   -5.4473 C   0  0  0  0  0  4           0  0  0
   12.5880   -0.1061   -6.7737 C   0  0  0  0  0  4           0  0  0
    8.0325   -0.0230   -4.0075 C   0  0  0  0  0  4           0  0  0
   12.9908   -0.0739   -3.0540 C   0  0  0  0  0  4           0  0  0
    9.6044   -0.0612   -6.0185 C   0  0  0  0  0  4           0  0  0
    5.8157    0.0000   -2.6953 C   0  0  0  0  0  4           0  0  0
   11.4638   -0.0143   -1.2507 C   0  0  0  0  0  4           0  0  0
    4.3038    0.0000   -2.7896 C   0  0  0  0  0  4           0  0  0
    3.6800    0.0000   -1.3949 C   0  0  0  0  0  4           0  0  0
    2.1520    0.0000   -1.3949 C   0  0  0  0  0  4           0  0  0
    1.5281   -0.0000   -0.0000 C   0  0  0  0  0  4           0  0  0
    0.0000    0.0000    0.0000 C   0  0  0  0  0  4           0  0  0
   -0.6239    0.0000    1.3949 C   0  0  0  0  0  4           0  0  0
   -2.1520   -0.0000    1.3949 C   0  0  0  0  0  4           0  0  0
   -2.7758   -0.0000    2.7899 C   0  0  0  0  0  4           0  0  0
   -4.3039   -0.0000    2.7899 C   0  0  0  0  0  4           0  0  0
   -4.9278   -0.0000    4.1848 C   0  0  0  0  0  4           0  0  0
   -6.4559   -0.0000    4.1848 C   0  0  0  0  0  4           0  0  0
   -7.0798   -0.0000    5.5797 C   0  0  0  0  0  4           0  0  0
   -8.6078   -0.0000    5.5797 C   0  0  0  0  0  4           0  0  0
   -9.2317   -1.2080    4.8823 C   0  0  0  0  0  4           0  0  0
  -10.7598   -1.2080    4.8823 C   0  0  0  0  0  4           0  0  0
  -11.3837   -2.4161    4.1848 C   0  0  0  0  0  4           0  0  0
  -12.9019   -2.3555    4.2198 C   0  0  0  0  0  4           0  0  0
  1  9  1  0     0  0
  1 10  1  0     0  0
  2 16  2  0     0  0
  3 17  2  0     0  0
  4 18  2  0     0  0
  5 16  1  0     0  0
  5 19  1  0     0  0
  6  7  1  0     0  0
  6 11  1  0     0  0
  7 12  2  0     0  0
  8 13  1  0     0  0
  8 17  1  0     0  0
  9 13  2  0     0  0
  9 16  1  0     0  0
 10 14  2  0     0  0
 11 15  2  0     0  0
 11 17  1  0     0  0
 12 15  1  0     0  0
 12 18  1  0     0  0
 13 14  1  0     0  0
 18 20  1  0     0  0
 20 21  1  0     0  0
 21 22  1  0     0  0
 22 23  1  0     0  0
 23 24  1  0     0  0
 24 25  1  0     0  0
 25 26  1  0     0  0
 26 27  1  0     0  0
 27 28  1  0     0  0
 28 29  1  0     0  0
 29 30  1  0     0  0
 30 31  1  0     0  0
 31 32  1  0     0  0
 32 33  1  0     0  0
 33 34  1  0     0  0
 34 35  1  0     0  0
 35 36  1  0     0  0
M  END
> <standard_type>
pIC50

> <# Confs.>
25

> <canonical_smiles>
COC(C1=C(NC(C2=CC(C(CCCCCCCCCCCCCCCCC)=O)=NN2)=O)C=CS1)=O

> <standard_relation>
=

> <predicted_activity_value>
5.412289034981089

> <actual_activity_value>
5.473660722610156

> <Compound>
29

> <publication_ID>
nan

> <standard_units>
nM

> hash
3967794379276762336

$$$$
29_
XXILIB    08252103423D 0   0.00000     0.00000

 36 37  0     1  0            999 V2000
   14.6068   -0.1220   -5.2069 S   0  0  0  0  0  2           0  0  0
   13.9632   -0.0777   -2.3104 O   0  0  0  0  0  2           0  0  0
    9.7140   -0.0743   -7.2445 O   0  0  0  0  0  2           0  0  0
    6.3573   -0.0000   -1.5893 O   0  0  0  0  0  2           0  0  0
   11.6858   -0.0437   -2.6651 O   0  0  0  0  0  2           0  0  0
    7.0893   -0.0275   -5.9656 N   0  0  0  0  0  3           0  0  0
    6.0483   -0.0103   -5.1207 N   0  0  0  0  0  3           0  0  0
   10.6880   -0.0673   -5.1494 N   0  0  0  0  0  3           0  0  0
   13.0437   -0.0922   -4.4826 C   0  0  0  0  0  4           0  0  0
   13.9623   -0.1312   -6.7824 C   0  0  0  0  0  4           0  0  0
    8.3170   -0.0380   -5.3579 C   0  0  0  0  0  4           0  0  0
    6.6188   -0.0101   -3.9097 C   0  0  0  0  0  4           0  0  0
   12.0434   -0.0881   -5.4473 C   0  0  0  0  0  4           0  0  0
   12.5880   -0.1061   -6.7737 C   0  0  0  0  0  4           0  0  0
    8.0325   -0.0230   -4.0075 C   0  0  0  0  0  4           0  0  0
   12.9908   -0.0739   -3.0540 C   0  0  0  0  0  4           0  0  0
    9.6044   -0.0612   -6.0185 C   0  0  0  0  0  4           0  0  0
    5.8157    0.0000   -2.6953 C   0  0  0  0  0  4           0  0  0
   11.4638   -0.0143   -1.2507 C   0  0  0  0  0  4           0  0  0
    4.3038    0.0000   -2.7896 C   0  0  0  0  0  4           0  0  0
    3.6800    0.0000   -1.3949 C   0  0  0  0  0  4           0  0  0
    2.1520    0.0000   -1.3949 C   0  0  0  0  0  4           0  0  0
    1.5281   -0.0000   -0.0000 C   0  0  0  0  0  4           0  0  0
    0.0000    0.0000    0.0000 C   0  0  0  0  0  4           0  0  0
   -0.6239    0.0000    1.3949 C   0  0  0  0  0  4           0  0  0
   -2.1520   -0.0000    1.3949 C   0  0  0  0  0  4           0  0  0
   -2.7758   -0.0000    2.7899 C   0  0  0  0  0  4           0  0  0
   -4.3039   -0.0000    2.7899 C   0  0  0  0  0  4           0  0  0
   -4.9278   -0.0000    4.1848 C   0  0  0  0  0  4           0  0  0
   -6.4559   -0.0000    4.1848 C   0  0  0  0  0  4           0  0  0
   -7.0798   -0.0000    5.5797 C   0  0  0  0  0  4           0  0  0
   -8.6078   -0.0000    5.5797 C   0  0  0  0  0  4           0  0  0
   -9.2317   -0.0000    6.9747 C   0  0  0  0  0  4           0  0  0
   -8.8497    1.2080    7.8289 C   0  0  0  0  0  4           0  0  0
   -9.4736    1.2080    9.2239 C   0  0  0  0  0  4           0  0  0
   -9.0550    2.4331   10.0201 C   0  0  0  0  0  4           0  0  0
  1  9  1  0     0  0
  1 10  1  0     0  0
  2 16  2  0     0  0
  3 17  2  0     0  0
  4 18  2  0     0  0
  5 16  1  0     0  0
  5 19  1  0     0  0
  6  7  1  0     0  0
  6 11  1  0     0  0
  7 12  2  0     0  0
  8 13  1  0     0  0
  8 17  1  0     0  0
  9 13  2  0     0  0
  9 16  1  0     0  0
 10 14  2  0     0  0
 11 15  2  0     0  0
 11 17  1  0     0  0
 12 15  1  0     0  0
 12 18  1  0     0  0
 13 14  1  0     0  0
 18 20  1  0     0  0
 20 21  1  0     0  0
 21 22  1  0     0  0
 22 23  1  0     0  0
 23 24  1  0     0  0
 24 25  1  0     0  0
 25 26  1  0     0  0
 26 27  1  0     0  0
 27 28  1  0     0  0
 28 29  1  0     0  0
 29 30  1  0     0  0
 30 31  1  0     0  0
 31 32  1  0     0  0
 32 33  1  0     0  0
 33 34  1  0     0  0
 34 35  1  0     0  0
 35 36  1  0     0  0
M  END
> <standard_type>
pIC50

> <# Confs.>
25

> <canonical_smiles>
COC(C1=C(NC(C2=CC(C(CCCCCCCCCCCCCCCCC)=O)=NN2)=O)C=CS1)=O

> <standard_relation>
=

> <predicted_activity_value>
5.412289034981089

> <actual_activity_value>
5.473660722610156

> <Compound>
29

> <publication_ID>
nan

> <standard_units>
nM

> hash
3967794379276762336

$$$$
29_
XXILIB    08252103423D 0   0.00000     0.00000

 36 37  0     1  0            999 V2000
   14.6068    4.5703    2.4978 S   0  0  0  0  0  2           0  0  0
   13.9632    2.0397    1.0879 O   0  0  0  0  0  2           0  0  0
    9.7140    6.3111    3.5579 O   0  0  0  0  0  2           0  0  0
    6.3573    1.3764    0.7946 O   0  0  0  0  0  2           0  0  0
   11.6858    2.3299    1.2947 O   0  0  0  0  0  2           0  0  0
    7.0893    5.1801    2.9590 N   0  0  0  0  0  3           0  0  0
    6.0483    4.4398    2.5514 N   0  0  0  0  0  3           0  0  0
   10.6880    4.4932    2.5164 N   0  0  0  0  0  3           0  0  0
   13.0437    3.9282    2.1615 C   0  0  0  0  0  4           0  0  0
   13.9623    5.9394    3.2776 C   0  0  0  0  0  4           0  0  0
    8.3170    4.6591    2.6461 C   0  0  0  0  0  4           0  0  0
    6.6188    3.3910    1.9461 C   0  0  0  0  0  4           0  0  0
   12.0434    4.7616    2.6474 C   0  0  0  0  0  4           0  0  0
   12.5880    5.9192    3.2950 C   0  0  0  0  0  4           0  0  0
    8.0325    3.4821    1.9838 C   0  0  0  0  0  4           0  0  0
   12.9908    2.6818    1.4630 C   0  0  0  0  0  4           0  0  0
    9.6044    5.2428    2.9562 C   0  0  0  0  0  4           0  0  0
    5.8157    2.3342    1.3476 C   0  0  0  0  0  4           0  0  0
   11.4638    1.0903    0.6130 C   0  0  0  0  0  4           0  0  0
    4.3038    2.4158    1.3948 C   0  0  0  0  0  4           0  0  0
    3.6800    1.2080    0.6975 C   0  0  0  0  0  4           0  0  0
    2.1520    1.2080    0.6975 C   0  0  0  0  0  4           0  0  0
    1.5281    0.0000   -0.0000 C   0  0  0  0  0  4           0  0  0
    0.0000    0.0000    0.0000 C   0  0  0  0  0  4           0  0  0
   -0.6239    0.0000    1.3949 C   0  0  0  0  0  4           0  0  0
   -2.1520   -0.0000    1.3949 C   0  0  0  0  0  4           0  0  0
   -2.7758   -0.0000    2.7899 C   0  0  0  0  0  4           0  0  0
   -4.3039   -0.0000    2.7899 C   0  0  0  0  0  4           0  0  0
   -4.9278   -0.0000    4.1848 C   0  0  0  0  0  4           0  0  0
   -6.4559   -0.0000    4.1848 C   0  0  0  0  0  4           0  0  0
   -7.0798   -0.0000    5.5797 C   0  0  0  0  0  4           0  0  0
   -8.6078   -0.0000    5.5797 C   0  0  0  0  0  4           0  0  0
   -9.2317   -0.0000    6.9747 C   0  0  0  0  0  4           0  0  0
  -10.7598   -0.0000    6.9747 C   0  0  0  0  0  4           0  0  0
  -11.3837   -0.0000    8.3696 C   0  0  0  0  0  4           0  0  0
  -12.9019   -0.0000    8.2996 C   0  0  0  0  0  4           0  0  0
  1  9  1  0     0  0
  1 10  1  0     0  0
  2 16  2  0     0  0
  3 17  2  0     0  0
  4 18  2  0     0  0
  5 16  1  0     0  0
  5 19  1  0     0  0
  6  7  1  0     0  0
  6 11  1  0     0  0
  7 12  2  0     0  0
  8 13  1  0     0  0
  8 17  1  0     0  0
  9 13  2  0     0  0
  9 16  1  0     0  0
 10 14  2  0     0  0
 11 15  2  0     0  0
 11 17  1  0     0  0
 12 15  1  0     0  0
 12 18  1  0     0  0
 13 14  1  0     0  0
 18 20  1  0     0  0
 20 21  1  0     0  0
 21 22  1  0     0  0
 22 23  1  0     0  0
 23 24  1  0     0  0
 24 25  1  0     0  0
 25 26  1  0     0  0
 26 27  1  0     0  0
 27 28  1  0     0  0
 28 29  1  0     0  0
 29 30  1  0     0  0
 30 31  1  0     0  0
 31 32  1  0     0  0
 32 33  1  0     0  0
 33 34  1  0     0  0
 34 35  1  0     0  0
 35 36  1  0     0  0
M  END
> <standard_type>
pIC50

> <# Confs.>
25

> <canonical_smiles>
COC(C1=C(NC(C2=CC(C(CCCCCCCCCCCCCCCCC)=O)=NN2)=O)C=CS1)=O

> <standard_relation>
=

> <predicted_activity_value>
5.412289034981089

> <actual_activity_value>
5.473660722610156

> <Compound>
29

> <publication_ID>
nan

> <standard_units>
nM

> hash
3967794379276762336

$$$$
29_
XXILIB    08252103423D 0   0.00000     0.00000

 36 37  0     1  0            999 V2000
   14.6068   -0.1220   -5.2069 S   0  0  0  0  0  2           0  0  0
   13.9632   -0.0777   -2.3104 O   0  0  0  0  0  2           0  0  0
    9.7140   -0.0743   -7.2445 O   0  0  0  0  0  2           0  0  0
    6.3573   -0.0000   -1.5893 O   0  0  0  0  0  2           0  0  0
   11.6858   -0.0437   -2.6651 O   0  0  0  0  0  2           0  0  0
    7.0893   -0.0275   -5.9656 N   0  0  0  0  0  3           0  0  0
    6.0483   -0.0103   -5.1207 N   0  0  0  0  0  3           0  0  0
   10.6880   -0.0673   -5.1494 N   0  0  0  0  0  3           0  0  0
   13.0437   -0.0922   -4.4826 C   0  0  0  0  0  4           0  0  0
   13.9623   -0.1312   -6.7824 C   0  0  0  0  0  4           0  0  0
    8.3170   -0.0380   -5.3579 C   0  0  0  0  0  4           0  0  0
    6.6188   -0.0101   -3.9097 C   0  0  0  0  0  4           0  0  0
   12.0434   -0.0881   -5.4473 C   0  0  0  0  0  4           0  0  0
   12.5880   -0.1061   -6.7737 C   0  0  0  0  0  4           0  0  0
    8.0325   -0.0230   -4.0075 C   0  0  0  0  0  4           0  0  0
   12.9908   -0.0739   -3.0540 C   0  0  0  0  0  4           0  0  0
    9.6044   -0.0612   -6.0185 C   0  0  0  0  0  4           0  0  0
    5.8157    0.0000   -2.6953 C   0  0  0  0  0  4           0  0  0
   11.4638   -0.0143   -1.2507 C   0  0  0  0  0  4           0  0  0
    4.3038    0.0000   -2.7896 C   0  0  0  0  0  4           0  0  0
    3.6800    0.0000   -1.3949 C   0  0  0  0  0  4           0  0  0
    2.1520    0.0000   -1.3949 C   0  0  0  0  0  4           0  0  0
    1.5281   -0.0000   -0.0000 C   0  0  0  0  0  4           0  0  0
   -0.0000    0.0000    0.0000 C   0  0  0  0  0  4           0  0  0
   -0.6239    0.0000    1.3949 C   0  0  0  0  0  4           0  0  0
   -0.2419   -1.2080    2.2492 C   0  0  0  0  0  4           0  0  0
   -0.8658   -1.2080    3.6441 C   0  0  0  0  0  4           0  0  0
   -0.4838   -2.4161    4.4984 C   0  0  0  0  0  4           0  0  0
   -1.1077   -2.4161    5.8933 C   0  0  0  0  0  4           0  0  0
   -0.7257   -3.6241    6.7476 C   0  0  0  0  0  4           0  0  0
   -1.3496   -3.6241    8.1425 C   0  0  0  0  0  4           0  0  0
   -0.9676   -4.8322    8.9968 C   0  0  0  0  0  4           0  0  0
   -1.5914   -4.8322   10.3917 C   0  0  0  0  0  4           0  0  0
   -1.2095   -6.0402   11.2460 C   0  0  0  0  0  4           0  0  0
   -1.8333   -6.0402   12.6409 C   0  0  0  0  0  4           0  0  0
   -1.4147   -7.2652   13.4372 C   0  0  0  0  0  4           0  0  0
  1  9  1  0     0  0
  1 10  1  0     0  0
  2 16  2  0     0  0
  3 17  2  0     0  0
  4 18  2  0     0  0
  5 16  1  0     0  0
  5 19  1  0     0  0
  6  7  1  0     0  0
  6 11  1  0     0  0
  7 12  2  0     0  0
  8 13  1  0     0  0
  8 17  1  0     0  0
  9 13  2  0     0  0
  9 16  1  0     0  0
 10 14  2  0     0  0
 11 15  2  0     0  0
 11 17  1  0     0  0
 12 15  1  0     0  0
 12 18  1  0     0  0
 13 14  1  0     0  0
 18 20  1  0     0  0
 20 21  1  0     0  0
 21 22  1  0     0  0
 22 23  1  0     0  0
 23 24  1  0     0  0
 24 25  1  0     0  0
 25 26  1  0     0  0
 26 27  1  0     0  0
 27 28  1  0     0  0
 28 29  1  0     0  0
 29 30  1  0     0  0
 30 31  1  0     0  0
 31 32  1  0     0  0
 32 33  1  0     0  0
 33 34  1  0     0  0
 34 35  1  0     0  0
 35 36  1  0     0  0
M  END
> <standard_type>
pIC50

> <# Confs.>
25

> <canonical_smiles>
COC(C1=C(NC(C2=CC(C(CCCCCCCCCCCCCCCCC)=O)=NN2)=O)C=CS1)=O

> <standard_relation>
=

> <predicted_activity_value>
5.412289034981089

> <actual_activity_value>
5.473660722610156

> <Compound>
29

> <publication_ID>
nan

> <standard_units>
nM

> hash
3967794379276762336

$$$$
29_
XXILIB    08252103423D 0   0.00000     0.00000

 36 37  0     1  0            999 V2000
   14.6068   -0.1220   -5.2069 S   0  0  0  0  0  2           0  0  0
   13.9632   -0.0777   -2.3104 O   0  0  0  0  0  2           0  0  0
    9.7140   -0.0743   -7.2445 O   0  0  0  0  0  2           0  0  0
    6.3573   -0.0000   -1.5893 O   0  0  0  0  0  2           0  0  0
   11.6858   -0.0437   -2.6651 O   0  0  0  0  0  2           0  0  0
    7.0893   -0.0275   -5.9656 N   0  0  0  0  0  3           0  0  0
    6.0483   -0.0103   -5.1207 N   0  0  0  0  0  3           0  0  0
   10.6880   -0.0673   -5.1494 N   0  0  0  0  0  3           0  0  0
   13.0437   -0.0922   -4.4826 C   0  0  0  0  0  4           0  0  0
   13.9623   -0.1312   -6.7824 C   0  0  0  0  0  4           0  0  0
    8.3170   -0.0380   -5.3579 C   0  0  0  0  0  4           0  0  0
    6.6188   -0.0101   -3.9097 C   0  0  0  0  0  4           0  0  0
   12.0434   -0.0881   -5.4473 C   0  0  0  0  0  4           0  0  0
   12.5880   -0.1061   -6.7737 C   0  0  0  0  0  4           0  0  0
    8.0325   -0.0230   -4.0075 C   0  0  0  0  0  4           0  0  0
   12.9908   -0.0739   -3.0540 C   0  0  0  0  0  4           0  0  0
    9.6044   -0.0612   -6.0185 C   0  0  0  0  0  4           0  0  0
    5.8157    0.0000   -2.6953 C   0  0  0  0  0  4           0  0  0
   11.4638   -0.0143   -1.2507 C   0  0  0  0  0  4           0  0  0
    4.3038    0.0000   -2.7896 C   0  0  0  0  0  4           0  0  0
    3.6800    0.0000   -1.3949 C   0  0  0  0  0  4           0  0  0
    2.1520    0.0000   -1.3949 C   0  0  0  0  0  4           0  0  0
    1.5281   -0.0000   -0.0000 C   0  0  0  0  0  4           0  0  0
   -0.0000    0.0000    0.0000 C   0  0  0  0  0  4           0  0  0
   -0.6239    0.0000    1.3949 C   0  0  0  0  0  4           0  0  0
   -2.1520    0.0000    1.3949 C   0  0  0  0  0  4           0  0  0
   -2.7758   -0.0000    2.7899 C   0  0  0  0  0  4           0  0  0
   -2.3939   -1.2080    3.6441 C   0  0  0  0  0  4           0  0  0
   -3.0177   -1.2080    5.0391 C   0  0  0  0  0  4           0  0  0
   -2.6357   -2.4161    5.8933 C   0  0  0  0  0  4           0  0  0
   -3.2596   -2.4161    7.2883 C   0  0  0  0  0  4           0  0  0
   -2.8776   -3.6241    8.1425 C   0  0  0  0  0  4           0  0  0
   -3.5015   -3.6241    9.5375 C   0  0  0  0  0  4           0  0  0
   -3.1195   -4.8322   10.3917 C   0  0  0  0  0  4           0  0  0
   -3.7434   -4.8322   11.7866 C   0  0  0  0  0  4           0  0  0
   -3.3248   -6.0572   12.5829 C   0  0  0  0  0  4           0  0  0
  1  9  1  0     0  0
  1 10  1  0     0  0
  2 16  2  0     0  0
  3 17  2  0     0  0
  4 18  2  0     0  0
  5 16  1  0     0  0
  5 19  1  0     0  0
  6  7  1  0     0  0
  6 11  1  0     0  0
  7 12  2  0     0  0
  8 13  1  0     0  0
  8 17  1  0     0  0
  9 13  2  0     0  0
  9 16  1  0     0  0
 10 14  2  0     0  0
 11 15  2  0     0  0
 11 17  1  0     0  0
 12 15  1  0     0  0
 12 18  1  0     0  0
 13 14  1  0     0  0
 18 20  1  0     0  0
 20 21  1  0     0  0
 21 22  1  0     0  0
 22 23  1  0     0  0
 23 24  1  0     0  0
 24 25  1  0     0  0
 25 26  1  0     0  0
 26 27  1  0     0  0
 27 28  1  0     0  0
 28 29  1  0     0  0
 29 30  1  0     0  0
 30 31  1  0     0  0
 31 32  1  0     0  0
 32 33  1  0     0  0
 33 34  1  0     0  0
 34 35  1  0     0  0
 35 36  1  0     0  0
M  END
> <standard_type>
pIC50

> <# Confs.>
25

> <canonical_smiles>
COC(C1=C(NC(C2=CC(C(CCCCCCCCCCCCCCCCC)=O)=NN2)=O)C=CS1)=O

> <standard_relation>
=

> <predicted_activity_value>
5.412289034981089

> <actual_activity_value>
5.473660722610156

> <Compound>
29

> <publication_ID>
nan

> <standard_units>
nM

> hash
3967794379276762336

$$$$
29_
XXILIB    08252103423D 0   0.00000     0.00000

 36 37  0     1  0            999 V2000
   14.6068   -0.1220   -5.2069 S   0  0  0  0  0  2           0  0  0
   13.9632   -0.0777   -2.3104 O   0  0  0  0  0  2           0  0  0
    9.7140   -0.0743   -7.2445 O   0  0  0  0  0  2           0  0  0
    6.3573   -0.0000   -1.5893 O   0  0  0  0  0  2           0  0  0
   11.6858   -0.0437   -2.6651 O   0  0  0  0  0  2           0  0  0
    7.0893   -0.0275   -5.9656 N   0  0  0  0  0  3           0  0  0
    6.0483   -0.0103   -5.1207 N   0  0  0  0  0  3           0  0  0
   10.6880   -0.0673   -5.1494 N   0  0  0  0  0  3           0  0  0
   13.0437   -0.0922   -4.4826 C   0  0  0  0  0  4           0  0  0
   13.9623   -0.1312   -6.7824 C   0  0  0  0  0  4           0  0  0
    8.3170   -0.0380   -5.3579 C   0  0  0  0  0  4           0  0  0
    6.6188   -0.0101   -3.9097 C   0  0  0  0  0  4           0  0  0
   12.0434   -0.0881   -5.4473 C   0  0  0  0  0  4           0  0  0
   12.5880   -0.1061   -6.7737 C   0  0  0  0  0  4           0  0  0
    8.0325   -0.0230   -4.0075 C   0  0  0  0  0  4           0  0  0
   12.9908   -0.0739   -3.0540 C   0  0  0  0  0  4           0  0  0
    9.6044   -0.0612   -6.0185 C   0  0  0  0  0  4           0  0  0
    5.8157    0.0000   -2.6953 C   0  0  0  0  0  4           0  0  0
   11.4638   -0.0143   -1.2507 C   0  0  0  0  0  4           0  0  0
    4.3038    0.0000   -2.7896 C   0  0  0  0  0  4           0  0  0
    3.6800    0.0000   -1.3949 C   0  0  0  0  0  4           0  0  0
    2.1520    0.0000   -1.3949 C   0  0  0  0  0  4           0  0  0
    1.5281   -0.0000   -0.0000 C   0  0  0  0  0  4           0  0  0
    0.0000    0.0000   -0.0000 C   0  0  0  0  0  4           0  0  0
   -0.6239   -0.0000    1.3949 C   0  0  0  0  0  4           0  0  0
   -2.1520    0.0000    1.3949 C   0  0  0  0  0  4           0  0  0
   -2.7758    1.2080    0.6975 C   0  0  0  0  0  4           0  0  0
   -4.3039    1.2080    0.6975 C   0  0  0  0  0  4           0  0  0
   -4.9278    2.4161    0.0000 C   0  0  0  0  0  4           0  0  0
   -6.4559    2.4161    0.0000 C   0  0  0  0  0  4           0  0  0
   -7.0798    3.6241   -0.6975 C   0  0  0  0  0  4           0  0  0
   -8.6078    3.6241   -0.6975 C   0  0  0  0  0  4           0  0  0
   -9.2317    4.8322   -1.3949 C   0  0  0  0  0  4           0  0  0
  -10.7598    4.8322   -1.3949 C   0  0  0  0  0  4           0  0  0
  -11.3837    6.0402   -2.0924 C   0  0  0  0  0  4           0  0  0
  -12.9019    5.9796   -2.0574 C   0  0  0  0  0  4           0  0  0
  1  9  1  0     0  0
  1 10  1  0     0  0
  2 16  2  0     0  0
  3 17  2  0     0  0
  4 18  2  0     0  0
  5 16  1  0     0  0
  5 19  1  0     0  0
  6  7  1  0     0  0
  6 11  1  0     0  0
  7 12  2  0     0  0
  8 13  1  0     0  0
  8 17  1  0     0  0
  9 13  2  0     0  0
  9 16  1  0     0  0
 10 14  2  0     0  0
 11 15  2  0     0  0
 11 17  1  0     0  0
 12 15  1  0     0  0
 12 18  1  0     0  0
 13 14  1  0     0  0
 18 20  1  0     0  0
 20 21  1  0     0  0
 21 22  1  0     0  0
 22 23  1  0     0  0
 23 24  1  0     0  0
 24 25  1  0     0  0
 25 26  1  0     0  0
 26 27  1  0     0  0
 27 28  1  0     0  0
 28 29  1  0     0  0
 29 30  1  0     0  0
 30 31  1  0     0  0
 31 32  1  0     0  0
 32 33  1  0     0  0
 33 34  1  0     0  0
 34 35  1  0     0  0
 35 36  1  0     0  0
M  END
> <standard_type>
pIC50

> <# Confs.>
25

> <canonical_smiles>
COC(C1=C(NC(C2=CC(C(CCCCCCCCCCCCCCCCC)=O)=NN2)=O)C=CS1)=O

> <standard_relation>
=

> <predicted_activity_value>
5.412289034981089

> <actual_activity_value>
5.473660722610156

> <Compound>
29

> <publication_ID>
nan

> <standard_units>
nM

> hash
3967794379276762336

$$$$
29_
XXILIB    08252103423D 0   0.00000     0.00000

 36 37  0     1  0            999 V2000
   14.6068   -0.1220   -5.2069 S   0  0  0  0  0  2           0  0  0
   13.9632   -0.0777   -2.3104 O   0  0  0  0  0  2           0  0  0
    9.7140   -0.0743   -7.2445 O   0  0  0  0  0  2           0  0  0
    6.3573   -0.0000   -1.5893 O   0  0  0  0  0  2           0  0  0
   11.6858   -0.0437   -2.6651 O   0  0  0  0  0  2           0  0  0
    7.0893   -0.0275   -5.9656 N   0  0  0  0  0  3           0  0  0
    6.0483   -0.0103   -5.1207 N   0  0  0  0  0  3           0  0  0
   10.6880   -0.0673   -5.1494 N   0  0  0  0  0  3           0  0  0
   13.0437   -0.0922   -4.4826 C   0  0  0  0  0  4           0  0  0
   13.9623   -0.1312   -6.7824 C   0  0  0  0  0  4           0  0  0
    8.3170   -0.0380   -5.3579 C   0  0  0  0  0  4           0  0  0
    6.6188   -0.0101   -3.9097 C   0  0  0  0  0  4           0  0  0
   12.0434   -0.0881   -5.4473 C   0  0  0  0  0  4           0  0  0
   12.5880   -0.1061   -6.7737 C   0  0  0  0  0  4           0  0  0
    8.0325   -0.0230   -4.0075 C   0  0  0  0  0  4           0  0  0
   12.9908   -0.0739   -3.0540 C   0  0  0  0  0  4           0  0  0
    9.6044   -0.0612   -6.0185 C   0  0  0  0  0  4           0  0  0
    5.8157    0.0000   -2.6953 C   0  0  0  0  0  4           0  0  0
   11.4638   -0.0143   -1.2507 C   0  0  0  0  0  4           0  0  0
    4.3038    0.0000   -2.7896 C   0  0  0  0  0  4           0  0  0
    3.6800    0.0000   -1.3949 C   0  0  0  0  0  4           0  0  0
    2.1520    0.0000   -1.3949 C   0  0  0  0  0  4           0  0  0
    1.5281   -0.0000   -0.0000 C   0  0  0  0  0  4           0  0  0
    0.0000    0.0000    0.0000 C   0  0  0  0  0  4           0  0  0
   -0.6239    0.0000    1.3949 C   0  0  0  0  0  4           0  0  0
   -2.1520    0.0000    1.3949 C   0  0  0  0  0  4           0  0  0
   -2.7758    0.0000    2.7899 C   0  0  0  0  0  4           0  0  0
   -4.3039    0.0000    2.7899 C   0  0  0  0  0  4           0  0  0
   -4.9278    1.2080    2.0924 C   0  0  0  0  0  4           0  0  0
   -6.4559    1.2080    2.0924 C   0  0  0  0  0  4           0  0  0
   -7.0798    2.4161    1.3949 C   0  0  0  0  0  4           0  0  0
   -8.6078    2.4161    1.3949 C   0  0  0  0  0  4           0  0  0
   -9.2317    3.6241    0.6975 C   0  0  0  0  0  4           0  0  0
  -10.7598    3.6241    0.6975 C   0  0  0  0  0  4           0  0  0
  -11.3837    4.8322   -0.0000 C   0  0  0  0  0  4           0  0  0
  -12.9019    4.7716    0.0350 C   0  0  0  0  0  4           0  0  0
  1  9  1  0     0  0
  1 10  1  0     0  0
  2 16  2  0     0  0
  3 17  2  0     0  0
  4 18  2  0     0  0
  5 16  1  0     0  0
  5 19  1  0     0  0
  6  7  1  0     0  0
  6 11  1  0     0  0
  7 12  2  0     0  0
  8 13  1  0     0  0
  8 17  1  0     0  0
  9 13  2  0     0  0
  9 16  1  0     0  0
 10 14  2  0     0  0
 11 15  2  0     0  0
 11 17  1  0     0  0
 12 15  1  0     0  0
 12 18  1  0     0  0
 13 14  1  0     0  0
 18 20  1  0     0  0
 20 21  1  0     0  0
 21 22  1  0     0  0
 22 23  1  0     0  0
 23 24  1  0     0  0
 24 25  1  0     0  0
 25 26  1  0     0  0
 26 27  1  0     0  0
 27 28  1  0     0  0
 28 29  1  0     0  0
 29 30  1  0     0  0
 30 31  1  0     0  0
 31 32  1  0     0  0
 32 33  1  0     0  0
 33 34  1  0     0  0
 34 35  1  0     0  0
 35 36  1  0     0  0
M  END
> <standard_type>
pIC50

> <# Confs.>
25

> <canonical_smiles>
COC(C1=C(NC(C2=CC(C(CCCCCCCCCCCCCCCCC)=O)=NN2)=O)C=CS1)=O

> <standard_relation>
=

> <predicted_activity_value>
5.412289034981089

> <actual_activity_value>
5.473660722610156

> <Compound>
29

> <publication_ID>
nan

> <standard_units>
nM

> hash
3967794379276762336

$$$$
29_
XXILIB    08252103423D 0   0.00000     0.00000

 36 37  0     1  0            999 V2000
   14.6068   -0.1220   -5.2069 S   0  0  0  0  0  2           0  0  0
   13.9632   -0.0777   -2.3104 O   0  0  0  0  0  2           0  0  0
    9.7140   -0.0743   -7.2445 O   0  0  0  0  0  2           0  0  0
    6.3573   -0.0000   -1.5893 O   0  0  0  0  0  2           0  0  0
   11.6858   -0.0437   -2.6651 O   0  0  0  0  0  2           0  0  0
    7.0893   -0.0275   -5.9656 N   0  0  0  0  0  3           0  0  0
    6.0483   -0.0103   -5.1207 N   0  0  0  0  0  3           0  0  0
   10.6880   -0.0673   -5.1494 N   0  0  0  0  0  3           0  0  0
   13.0437   -0.0922   -4.4826 C   0  0  0  0  0  4           0  0  0
   13.9623   -0.1312   -6.7824 C   0  0  0  0  0  4           0  0  0
    8.3170   -0.0380   -5.3579 C   0  0  0  0  0  4           0  0  0
    6.6188   -0.0101   -3.9097 C   0  0  0  0  0  4           0  0  0
   12.0434   -0.0881   -5.4473 C   0  0  0  0  0  4           0  0  0
   12.5880   -0.1061   -6.7737 C   0  0  0  0  0  4           0  0  0
    8.0325   -0.0230   -4.0075 C   0  0  0  0  0  4           0  0  0
   12.9908   -0.0739   -3.0540 C   0  0  0  0  0  4           0  0  0
    9.6044   -0.0612   -6.0185 C   0  0  0  0  0  4           0  0  0
    5.8157    0.0000   -2.6953 C   0  0  0  0  0  4           0  0  0
   11.4638   -0.0143   -1.2507 C   0  0  0  0  0  4           0  0  0
    4.3038    0.0000   -2.7896 C   0  0  0  0  0  4           0  0  0
    3.6800    0.0000   -1.3949 C   0  0  0  0  0  4           0  0  0
    2.1520    0.0000   -1.3949 C   0  0  0  0  0  4           0  0  0
    1.5281   -0.0000   -0.0000 C   0  0  0  0  0  4           0  0  0
   -0.0000    0.0000    0.0000 C   0  0  0  0  0  4           0  0  0
   -0.6239    0.0000    1.3949 C   0  0  0  0  0  4           0  0  0
   -2.1520    0.0000    1.3949 C   0  0  0  0  0  4           0  0  0
   -2.7758   -0.0000    2.7899 C   0  0  0  0  0  4           0  0  0
   -4.3039   -0.0000    2.7899 C   0  0  0  0  0  4           0  0  0
   -4.9278   -0.0000    4.1848 C   0  0  0  0  0  4           0  0  0
   -4.5458   -1.2080    5.0391 C   0  0  0  0  0  4           0  0  0
   -5.1697   -1.2080    6.4340 C   0  0  0  0  0  4           0  0  0
   -4.7877   -2.4161    7.2883 C   0  0  0  0  0  4           0  0  0
   -5.4116   -2.4161    8.6832 C   0  0  0  0  0  4           0  0  0
   -5.0296   -3.6241    9.5375 C   0  0  0  0  0  4           0  0  0
   -5.6535   -3.6241   10.9324 C   0  0  0  0  0  4           0  0  0
   -5.2348   -4.8492   11.7287 C   0  0  0  0  0  4           0  0  0
  1  9  1  0     0  0
  1 10  1  0     0  0
  2 16  2  0     0  0
  3 17  2  0     0  0
  4 18  2  0     0  0
  5 16  1  0     0  0
  5 19  1  0     0  0
  6  7  1  0     0  0
  6 11  1  0     0  0
  7 12  2  0     0  0
  8 13  1  0     0  0
  8 17  1  0     0  0
  9 13  2  0     0  0
  9 16  1  0     0  0
 10 14  2  0     0  0
 11 15  2  0     0  0
 11 17  1  0     0  0
 12 15  1  0     0  0
 12 18  1  0     0  0
 13 14  1  0     0  0
 18 20  1  0     0  0
 20 21  1  0     0  0
 21 22  1  0     0  0
 22 23  1  0     0  0
 23 24  1  0     0  0
 24 25  1  0     0  0
 25 26  1  0     0  0
 26 27  1  0     0  0
 27 28  1  0     0  0
 28 29  1  0     0  0
 29 30  1  0     0  0
 30 31  1  0     0  0
 31 32  1  0     0  0
 32 33  1  0     0  0
 33 34  1  0     0  0
 34 35  1  0     0  0
 35 36  1  0     0  0
M  END
> <standard_type>
pIC50

> <# Confs.>
25

> <canonical_smiles>
COC(C1=C(NC(C2=CC(C(CCCCCCCCCCCCCCCCC)=O)=NN2)=O)C=CS1)=O

> <standard_relation>
=

> <predicted_activity_value>
5.412289034981089

> <actual_activity_value>
5.473660722610156

> <Compound>
29

> <publication_ID>
nan

> <standard_units>
nM

> hash
3967794379276762336

$$$$
29_
XXILIB    08252103423D 0   0.00000     0.00000

 36 37  0     1  0            999 V2000
   14.6068   -0.1220   -5.2069 S   0  0  0  0  0  2           0  0  0
   13.9632   -0.0777   -2.3104 O   0  0  0  0  0  2           0  0  0
    9.7140   -0.0743   -7.2445 O   0  0  0  0  0  2           0  0  0
    6.3573   -0.0000   -1.5893 O   0  0  0  0  0  2           0  0  0
   11.6858   -0.0437   -2.6651 O   0  0  0  0  0  2           0  0  0
    7.0893   -0.0275   -5.9656 N   0  0  0  0  0  3           0  0  0
    6.0483   -0.0103   -5.1207 N   0  0  0  0  0  3           0  0  0
   10.6880   -0.0673   -5.1494 N   0  0  0  0  0  3           0  0  0
   13.0437   -0.0922   -4.4826 C   0  0  0  0  0  4           0  0  0
   13.9623   -0.1312   -6.7824 C   0  0  0  0  0  4           0  0  0
    8.3170   -0.0380   -5.3579 C   0  0  0  0  0  4           0  0  0
    6.6188   -0.0101   -3.9097 C   0  0  0  0  0  4           0  0  0
   12.0434   -0.0881   -5.4473 C   0  0  0  0  0  4           0  0  0
   12.5880   -0.1061   -6.7737 C   0  0  0  0  0  4           0  0  0
    8.0325   -0.0230   -4.0075 C   0  0  0  0  0  4           0  0  0
   12.9908   -0.0739   -3.0540 C   0  0  0  0  0  4           0  0  0
    9.6044   -0.0612   -6.0185 C   0  0  0  0  0  4           0  0  0
    5.8157    0.0000   -2.6953 C   0  0  0  0  0  4           0  0  0
   11.4638   -0.0143   -1.2507 C   0  0  0  0  0  4           0  0  0
    4.3038    0.0000   -2.7896 C   0  0  0  0  0  4           0  0  0
    3.6800    0.0000   -1.3949 C   0  0  0  0  0  4           0  0  0
    2.1520    0.0000   -1.3949 C   0  0  0  0  0  4           0  0  0
    1.5281   -0.0000   -0.0000 C   0  0  0  0  0  4           0  0  0
    0.0000    0.0000   -0.0000 C   0  0  0  0  0  4           0  0  0
   -0.6239    0.0000    1.3949 C   0  0  0  0  0  4           0  0  0
   -2.1520   -0.0000    1.3949 C   0  0  0  0  0  4           0  0  0
   -2.7758    0.0000    2.7899 C   0  0  0  0  0  4           0  0  0
   -4.3039    0.0000    2.7899 C   0  0  0  0  0  4           0  0  0
   -4.9278    0.0000    4.1848 C   0  0  0  0  0  4           0  0  0
   -6.4559    0.0000    4.1848 C   0  0  0  0  0  4           0  0  0
   -7.0798    1.2080    3.4873 C   0  0  0  0  0  4           0  0  0
   -8.6078    1.2080    3.4873 C   0  0  0  0  0  4           0  0  0
   -9.2317    2.4161    2.7899 C   0  0  0  0  0  4           0  0  0
  -10.7598    2.4161    2.7899 C   0  0  0  0  0  4           0  0  0
  -11.3837    3.6241    2.0924 C   0  0  0  0  0  4           0  0  0
  -12.9019    3.5635    2.1274 C   0  0  0  0  0  4           0  0  0
  1  9  1  0     0  0
  1 10  1  0     0  0
  2 16  2  0     0  0
  3 17  2  0     0  0
  4 18  2  0     0  0
  5 16  1  0     0  0
  5 19  1  0     0  0
  6  7  1  0     0  0
  6 11  1  0     0  0
  7 12  2  0     0  0
  8 13  1  0     0  0
  8 17  1  0     0  0
  9 13  2  0     0  0
  9 16  1  0     0  0
 10 14  2  0     0  0
 11 15  2  0     0  0
 11 17  1  0     0  0
 12 15  1  0     0  0
 12 18  1  0     0  0
 13 14  1  0     0  0
 18 20  1  0     0  0
 20 21  1  0     0  0
 21 22  1  0     0  0
 22 23  1  0     0  0
 23 24  1  0     0  0
 24 25  1  0     0  0
 25 26  1  0     0  0
 26 27  1  0     0  0
 27 28  1  0     0  0
 28 29  1  0     0  0
 29 30  1  0     0  0
 30 31  1  0     0  0
 31 32  1  0     0  0
 32 33  1  0     0  0
 33 34  1  0     0  0
 34 35  1  0     0  0
 35 36  1  0     0  0
M  END
> <standard_type>
pIC50

> <# Confs.>
25

> <canonical_smiles>
COC(C1=C(NC(C2=CC(C(CCCCCCCCCCCCCCCCC)=O)=NN2)=O)C=CS1)=O

> <standard_relation>
=

> <predicted_activity_value>
5.412289034981089

> <actual_activity_value>
5.473660722610156

> <Compound>
29

> <publication_ID>
nan

> <standard_units>
nM

> hash
3967794379276762336

$$$$
29_
XXILIB    08252103423D 0   0.00000     0.00000

 36 37  0     1  0            999 V2000
   14.6068   -0.1220   -5.2069 S   0  0  0  0  0  2           0  0  0
   13.9632   -0.0777   -2.3104 O   0  0  0  0  0  2           0  0  0
    9.7140   -0.0743   -7.2445 O   0  0  0  0  0  2           0  0  0
    6.3573   -0.0000   -1.5893 O   0  0  0  0  0  2           0  0  0
   11.6858   -0.0437   -2.6651 O   0  0  0  0  0  2           0  0  0
    7.0893   -0.0275   -5.9656 N   0  0  0  0  0  3           0  0  0
    6.0483   -0.0103   -5.1207 N   0  0  0  0  0  3           0  0  0
   10.6880   -0.0673   -5.1494 N   0  0  0  0  0  3           0  0  0
   13.0437   -0.0922   -4.4826 C   0  0  0  0  0  4           0  0  0
   13.9623   -0.1312   -6.7824 C   0  0  0  0  0  4           0  0  0
    8.3170   -0.0380   -5.3579 C   0  0  0  0  0  4           0  0  0
    6.6188   -0.0101   -3.9097 C   0  0  0  0  0  4           0  0  0
   12.0434   -0.0881   -5.4473 C   0  0  0  0  0  4           0  0  0
   12.5880   -0.1061   -6.7737 C   0  0  0  0  0  4           0  0  0
    8.0325   -0.0230   -4.0075 C   0  0  0  0  0  4           0  0  0
   12.9908   -0.0739   -3.0540 C   0  0  0  0  0  4           0  0  0
    9.6044   -0.0612   -6.0185 C   0  0  0  0  0  4           0  0  0
    5.8157    0.0000   -2.6953 C   0  0  0  0  0  4           0  0  0
   11.4638   -0.0143   -1.2507 C   0  0  0  0  0  4           0  0  0
    4.3038    0.0000   -2.7896 C   0  0  0  0  0  4           0  0  0
    3.6800    0.0000   -1.3949 C   0  0  0  0  0  4           0  0  0
    2.1520    0.0000   -1.3949 C   0  0  0  0  0  4           0  0  0
    1.5281   -0.0000   -0.0000 C   0  0  0  0  0  4           0  0  0
    0.0000    0.0000    0.0000 C   0  0  0  0  0  4           0  0  0
   -0.6239    0.0000    1.3949 C   0  0  0  0  0  4           0  0  0
   -2.1520   -0.0000    1.3949 C   0  0  0  0  0  4           0  0  0
   -2.7758   -0.0000    2.7899 C   0  0  0  0  0  4           0  0  0
   -4.3039   -0.0000    2.7899 C   0  0  0  0  0  4           0  0  0
   -4.9278   -0.0000    4.1848 C   0  0  0  0  0  4           0  0  0
   -6.4559   -0.0000    4.1848 C   0  0  0  0  0  4           0  0  0
   -7.0798   -0.0000    5.5797 C   0  0  0  0  0  4           0  0  0
   -6.6978   -1.2080    6.4340 C   0  0  0  0  0  4           0  0  0
   -7.3217   -1.2080    7.8289 C   0  0  0  0  0  4           0  0  0
   -6.9397   -2.4161    8.6832 C   0  0  0  0  0  4           0  0  0
   -7.5635   -2.4161   10.0781 C   0  0  0  0  0  4           0  0  0
   -7.1449   -3.6411   10.8744 C   0  0  0  0  0  4           0  0  0
  1  9  1  0     0  0
  1 10  1  0     0  0
  2 16  2  0     0  0
  3 17  2  0     0  0
  4 18  2  0     0  0
  5 16  1  0     0  0
  5 19  1  0     0  0
  6  7  1  0     0  0
  6 11  1  0     0  0
  7 12  2  0     0  0
  8 13  1  0     0  0
  8 17  1  0     0  0
  9 13  2  0     0  0
  9 16  1  0     0  0
 10 14  2  0     0  0
 11 15  2  0     0  0
 11 17  1  0     0  0
 12 15  1  0     0  0
 12 18  1  0     0  0
 13 14  1  0     0  0
 18 20  1  0     0  0
 20 21  1  0     0  0
 21 22  1  0     0  0
 22 23  1  0     0  0
 23 24  1  0     0  0
 24 25  1  0     0  0
 25 26  1  0     0  0
 26 27  1  0     0  0
 27 28  1  0     0  0
 28 29  1  0     0  0
 29 30  1  0     0  0
 30 31  1  0     0  0
 31 32  1  0     0  0
 32 33  1  0     0  0
 33 34  1  0     0  0
 34 35  1  0     0  0
 35 36  1  0     0  0
M  END
> <standard_type>
pIC50

> <# Confs.>
25

> <canonical_smiles>
COC(C1=C(NC(C2=CC(C(CCCCCCCCCCCCCCCCC)=O)=NN2)=O)C=CS1)=O

> <standard_relation>
=

> <predicted_activity_value>
5.412289034981089

> <actual_activity_value>
5.473660722610156

> <Compound>
29

> <publication_ID>
nan

> <standard_units>
nM

> hash
3967794379276762336

$$$$
29_
XXILIB    08252103423D 0   0.00000     0.00000

 36 37  0     1  0            999 V2000
   -2.9674   -7.9359   -9.8085 S   0  0  0  0  0  2           0  0  0
   -0.4950   -9.0133   -8.5707 O   0  0  0  0  0  2           0  0  0
   -2.8842   -2.9934   -7.8957 O   0  0  0  0  0  2           0  0  0
    2.6358   -3.4660   -4.3515 O   0  0  0  0  0  2           0  0  0
    0.0081   -7.0354   -7.4990 O   0  0  0  0  0  2           0  0  0
   -0.9984   -1.6392   -6.1247 N   0  0  0  0  0  3           0  0  0
    0.0092   -1.2880   -5.3127 N   0  0  0  0  0  3           0  0  0
   -1.5887   -4.9008   -7.7470 N   0  0  0  0  0  3           0  0  0
   -1.8722   -7.1083   -8.7673 C   0  0  0  0  0  4           0  0  0
   -3.9732   -6.5714   -9.9641 C   0  0  0  0  0  4           0  0  0
   -0.9441   -2.9318   -6.5748 C   0  0  0  0  0  4           0  0  0
    0.7534   -2.3974   -5.2278 C   0  0  0  0  0  4           0  0  0
   -2.2811   -5.7984   -8.5478 C   0  0  0  0  0  4           0  0  0
   -3.4952   -5.4988   -9.2494 C   0  0  0  0  0  4           0  0  0
    0.2003   -3.4479   -6.0016 C   0  0  0  0  0  4           0  0  0
   -0.7427   -7.8466   -8.2948 C   0  0  0  0  0  4           0  0  0
   -1.8950   -3.5779   -7.4540 C   0  0  0  0  0  4           0  0  0
    1.9631   -2.4366   -4.4183 C   0  0  0  0  0  4           0  0  0
    1.1889   -7.6310   -6.9498 C   0  0  0  0  0  4           0  0  0
    2.3937   -1.2080   -3.6438 C   0  0  0  0  0  4           0  0  0
    1.7700   -1.2080   -2.2492 C   0  0  0  0  0  4           0  0  0
    2.1520    0.0000   -1.3949 C   0  0  0  0  0  4           0  0  0
    1.5281    0.0000   -0.0000 C   0  0  0  0  0  4           0  0  0
    0.0000    0.0000    0.0000 C   0  0  0  0  0  4           0  0  0
   -0.6239    0.0000    1.3949 C   0  0  0  0  0  4           0  0  0
   -2.1520   -0.0000    1.3949 C   0  0  0  0  0  4           0  0  0
   -2.7758   -0.0000    2.7899 C   0  0  0  0  0  4           0  0  0
   -4.3039   -0.0000    2.7899 C   0  0  0  0  0  4           0  0  0
   -4.9278   -0.0000    4.1848 C   0  0  0  0  0  4           0  0  0
   -6.4559   -0.0000    4.1848 C   0  0  0  0  0  4           0  0  0
   -7.0798   -0.0000    5.5797 C   0  0  0  0  0  4           0  0  0
   -8.6078   -0.0000    5.5797 C   0  0  0  0  0  4           0  0  0
   -9.2317   -0.0000    6.9747 C   0  0  0  0  0  4           0  0  0
  -10.7598   -0.0000    6.9747 C   0  0  0  0  0  4           0  0  0
  -11.3837   -0.0000    8.3696 C   0  0  0  0  0  4           0  0  0
  -12.9019   -0.0000    8.2996 C   0  0  0  0  0  4           0  0  0
  1  9  1  0     0  0
  1 10  1  0     0  0
  2 16  2  0     0  0
  3 17  2  0     0  0
  4 18  2  0     0  0
  5 16  1  0     0  0
  5 19  1  0     0  0
  6  7  1  0     0  0
  6 11  1  0     0  0
  7 12  2  0     0  0
  8 13  1  0     0  0
  8 17  1  0     0  0
  9 13  2  0     0  0
  9 16  1  0     0  0
 10 14  2  0     0  0
 11 15  2  0     0  0
 11 17  1  0     0  0
 12 15  1  0     0  0
 12 18  1  0     0  0
 13 14  1  0     0  0
 18 20  1  0     0  0
 20 21  1  0     0  0
 21 22  1  0     0  0
 22 23  1  0     0  0
 23 24  1  0     0  0
 24 25  1  0     0  0
 25 26  1  0     0  0
 26 27  1  0     0  0
 27 28  1  0     0  0
 28 29  1  0     0  0
 29 30  1  0     0  0
 30 31  1  0     0  0
 31 32  1  0     0  0
 32 33  1  0     0  0
 33 34  1  0     0  0
 34 35  1  0     0  0
 35 36  1  0     0  0
M  END
> <standard_type>
pIC50

> <# Confs.>
25

> <canonical_smiles>
COC(C1=C(NC(C2=CC(C(CCCCCCCCCCCCCCCCC)=O)=NN2)=O)C=CS1)=O

> <standard_relation>
=

> <predicted_activity_value>
5.412289034981089

> <actual_activity_value>
5.473660722610156

> <Compound>
29

> <publication_ID>
nan

> <standard_units>
nM

> hash
3967794379276762336

$$$$
29_
XXILIB    08252103423D 0   0.00000     0.00000

 36 37  0     1  0            999 V2000
   14.6068   -0.1220   -5.2069 S   0  0  0  0  0  2           0  0  0
   13.9632   -0.0777   -2.3104 O   0  0  0  0  0  2           0  0  0
    9.7140   -0.0743   -7.2445 O   0  0  0  0  0  2           0  0  0
    6.3573   -0.0000   -1.5893 O   0  0  0  0  0  2           0  0  0
   11.6858   -0.0437   -2.6651 O   0  0  0  0  0  2           0  0  0
    7.0893   -0.0275   -5.9656 N   0  0  0  0  0  3           0  0  0
    6.0483   -0.0103   -5.1207 N   0  0  0  0  0  3           0  0  0
   10.6880   -0.0673   -5.1494 N   0  0  0  0  0  3           0  0  0
   13.0437   -0.0922   -4.4826 C   0  0  0  0  0  4           0  0  0
   13.9623   -0.1312   -6.7824 C   0  0  0  0  0  4           0  0  0
    8.3170   -0.0380   -5.3579 C   0  0  0  0  0  4           0  0  0
    6.6188   -0.0101   -3.9097 C   0  0  0  0  0  4           0  0  0
   12.0434   -0.0881   -5.4473 C   0  0  0  0  0  4           0  0  0
   12.5880   -0.1061   -6.7737 C   0  0  0  0  0  4           0  0  0
    8.0325   -0.0230   -4.0075 C   0  0  0  0  0  4           0  0  0
   12.9908   -0.0739   -3.0540 C   0  0  0  0  0  4           0  0  0
    9.6044   -0.0612   -6.0185 C   0  0  0  0  0  4           0  0  0
    5.8157    0.0000   -2.6953 C   0  0  0  0  0  4           0  0  0
   11.4638   -0.0143   -1.2507 C   0  0  0  0  0  4           0  0  0
    4.3038    0.0000   -2.7896 C   0  0  0  0  0  4           0  0  0
    3.6800    0.0000   -1.3949 C   0  0  0  0  0  4           0  0  0
    2.1520    0.0000   -1.3949 C   0  0  0  0  0  4           0  0  0
    1.5281   -0.0000   -0.0000 C   0  0  0  0  0  4           0  0  0
    0.0000    0.0000    0.0000 C   0  0  0  0  0  4           0  0  0
   -0.6239    0.0000    1.3949 C   0  0  0  0  0  4           0  0  0
   -2.1520   -0.0000    1.3949 C   0  0  0  0  0  4           0  0  0
   -2.7758   -0.0000    2.7899 C   0  0  0  0  0  4           0  0  0
   -4.3039   -0.0000    2.7899 C   0  0  0  0  0  4           0  0  0
   -4.9278   -0.0000    4.1848 C   0  0  0  0  0  4           0  0  0
   -6.4559   -0.0000    4.1848 C   0  0  0  0  0  4           0  0  0
   -7.0798   -0.0000    5.5797 C   0  0  0  0  0  4           0  0  0
   -8.6078   -0.0000    5.5797 C   0  0  0  0  0  4           0  0  0
   -9.2317    1.2080    4.8823 C   0  0  0  0  0  4           0  0  0
  -10.7598    1.2080    4.8823 C   0  0  0  0  0  4           0  0  0
  -11.3837    2.4161    4.1848 C   0  0  0  0  0  4           0  0  0
  -12.9019    2.3555    4.2198 C   0  0  0  0  0  4           0  0  0
  1  9  1  0     0  0
  1 10  1  0     0  0
  2 16  2  0     0  0
  3 17  2  0     0  0
  4 18  2  0     0  0
  5 16  1  0     0  0
  5 19  1  0     0  0
  6  7  1  0     0  0
  6 11  1  0     0  0
  7 12  2  0     0  0
  8 13  1  0     0  0
  8 17  1  0     0  0
  9 13  2  0     0  0
  9 16  1  0     0  0
 10 14  2  0     0  0
 11 15  2  0     0  0
 11 17  1  0     0  0
 12 15  1  0     0  0
 12 18  1  0     0  0
 13 14  1  0     0  0
 18 20  1  0     0  0
 20 21  1  0     0  0
 21 22  1  0     0  0
 22 23  1  0     0  0
 23 24  1  0     0  0
 24 25  1  0     0  0
 25 26  1  0     0  0
 26 27  1  0     0  0
 27 28  1  0     0  0
 28 29  1  0     0  0
 29 30  1  0     0  0
 30 31  1  0     0  0
 31 32  1  0     0  0
 32 33  1  0     0  0
 33 34  1  0     0  0
 34 35  1  0     0  0
 35 36  1  0     0  0
M  END
> <standard_type>
pIC50

> <# Confs.>
25

> <canonical_smiles>
COC(C1=C(NC(C2=CC(C(CCCCCCCCCCCCCCCCC)=O)=NN2)=O)C=CS1)=O

> <standard_relation>
=

> <predicted_activity_value>
5.412289034981089

> <actual_activity_value>
5.473660722610156

> <Compound>
29

> <publication_ID>
nan

> <standard_units>
nM

> hash
3967794379276762336

$$$$
29_
XXILIB    08252103423D 0   0.00000     0.00000

 36 37  0     1  0            999 V2000
   14.6068   -0.1220   -5.2069 S   0  0  0  0  0  2           0  0  0
   13.9632   -0.0777   -2.3104 O   0  0  0  0  0  2           0  0  0
    9.7140   -0.0743   -7.2445 O   0  0  0  0  0  2           0  0  0
    6.3573   -0.0000   -1.5893 O   0  0  0  0  0  2           0  0  0
   11.6858   -0.0437   -2.6651 O   0  0  0  0  0  2           0  0  0
    7.0893   -0.0275   -5.9656 N   0  0  0  0  0  3           0  0  0
    6.0483   -0.0103   -5.1207 N   0  0  0  0  0  3           0  0  0
   10.6880   -0.0673   -5.1494 N   0  0  0  0  0  3           0  0  0
   13.0437   -0.0922   -4.4826 C   0  0  0  0  0  4           0  0  0
   13.9623   -0.1312   -6.7824 C   0  0  0  0  0  4           0  0  0
    8.3170   -0.0380   -5.3579 C   0  0  0  0  0  4           0  0  0
    6.6188   -0.0101   -3.9097 C   0  0  0  0  0  4           0  0  0
   12.0434   -0.0881   -5.4473 C   0  0  0  0  0  4           0  0  0
   12.5880   -0.1061   -6.7737 C   0  0  0  0  0  4           0  0  0
    8.0325   -0.0230   -4.0075 C   0  0  0  0  0  4           0  0  0
   12.9908   -0.0739   -3.0540 C   0  0  0  0  0  4           0  0  0
    9.6044   -0.0612   -6.0185 C   0  0  0  0  0  4           0  0  0
    5.8157    0.0000   -2.6953 C   0  0  0  0  0  4           0  0  0
   11.4638   -0.0143   -1.2507 C   0  0  0  0  0  4           0  0  0
    4.3038    0.0000   -2.7896 C   0  0  0  0  0  4           0  0  0
    3.6800    0.0000   -1.3949 C   0  0  0  0  0  4           0  0  0
    2.1520    0.0000   -1.3949 C   0  0  0  0  0  4           0  0  0
    1.5281   -0.0000   -0.0000 C   0  0  0  0  0  4           0  0  0
    0.0000    0.0000    0.0000 C   0  0  0  0  0  4           0  0  0
   -0.6239    0.0000    1.3949 C   0  0  0  0  0  4           0  0  0
   -2.1520   -0.0000    1.3949 C   0  0  0  0  0  4           0  0  0
   -2.7758   -0.0000    2.7899 C   0  0  0  0  0  4           0  0  0
   -4.3039   -0.0000    2.7899 C   0  0  0  0  0  4           0  0  0
   -4.9278   -0.0000    4.1848 C   0  0  0  0  0  4           0  0  0
   -6.4559   -0.0000    4.1848 C   0  0  0  0  0  4           0  0  0
   -7.0798   -0.0000    5.5797 C   0  0  0  0  0  4           0  0  0
   -8.6078   -0.0000    5.5797 C   0  0  0  0  0  4           0  0  0
   -9.2317   -0.0000    6.9747 C   0  0  0  0  0  4           0  0  0
   -8.8497   -1.2080    7.8289 C   0  0  0  0  0  4           0  0  0
   -9.4736   -1.2080    9.2239 C   0  0  0  0  0  4           0  0  0
   -9.0550   -2.4331   10.0201 C   0  0  0  0  0  4           0  0  0
  1  9  1  0     0  0
  1 10  1  0     0  0
  2 16  2  0     0  0
  3 17  2  0     0  0
  4 18  2  0     0  0
  5 16  1  0     0  0
  5 19  1  0     0  0
  6  7  1  0     0  0
  6 11  1  0     0  0
  7 12  2  0     0  0
  8 13  1  0     0  0
  8 17  1  0     0  0
  9 13  2  0     0  0
  9 16  1  0     0  0
 10 14  2  0     0  0
 11 15  2  0     0  0
 11 17  1  0     0  0
 12 15  1  0     0  0
 12 18  1  0     0  0
 13 14  1  0     0  0
 18 20  1  0     0  0
 20 21  1  0     0  0
 21 22  1  0     0  0
 22 23  1  0     0  0
 23 24  1  0     0  0
 24 25  1  0     0  0
 25 26  1  0     0  0
 26 27  1  0     0  0
 27 28  1  0     0  0
 28 29  1  0     0  0
 29 30  1  0     0  0
 30 31  1  0     0  0
 31 32  1  0     0  0
 32 33  1  0     0  0
 33 34  1  0     0  0
 34 35  1  0     0  0
 35 36  1  0     0  0
M  END
> <standard_type>
pIC50

> <# Confs.>
25

> <canonical_smiles>
COC(C1=C(NC(C2=CC(C(CCCCCCCCCCCCCCCCC)=O)=NN2)=O)C=CS1)=O

> <standard_relation>
=

> <predicted_activity_value>
5.412289034981089

> <actual_activity_value>
5.473660722610156

> <Compound>
29

> <publication_ID>
nan

> <standard_units>
nM

> hash
3967794379276762336

$$$$
