_Clofilium
XXILIB    06242209073D 0   0.00000     0.00000

 60 60  0     1  0            999 V2000
    5.1387   -0.8036    0.8917 Cl  0  0  0  0  0  1           0  0  0
   -2.8284   -2.6315    1.3382 N   0  3  0  0  0  4           0  0  0
    3.5967   -0.2528    0.3582 C   0  0  0  0  0  4           0  0  0
    1.0865    0.6383   -0.5017 C   0  0  0  0  0  4           0  0  0
    2.8228   -1.0609   -0.4732 C   0  0  0  0  0  4           0  0  0
    3.1314    0.9982    0.7604 C   0  0  0  0  0  4           0  0  0
    1.5717   -0.6142   -0.9018 C   0  0  0  0  0  4           0  0  0
    1.8802    1.4420    0.3284 C   0  0  0  0  0  4           0  0  0
   -2.6749   -1.1416    1.1404 C   0  0  0  0  0  4           0  0  0
   -3.9781   -2.8107    2.3019 C   0  0  0  0  0  4           0  0  0
   -3.0922   -3.3161    0.0199 C   0  0  0  0  0  4           0  0  0
   -1.5138   -3.1593    1.9611 C   0  0  0  0  0  4           0  0  0
   -0.2499    1.1265   -0.9813 C   0  0  0  0  0  4           0  0  0
   -1.5459   -0.7607    0.1844 C   0  0  0  0  0  4           0  0  0
   -4.2867   -4.2711    2.6271 C   0  0  0  0  0  4           0  0  0
   -1.3799    0.7452   -0.0245 C   0  0  0  0  0  4           0  0  0
   -5.4489   -4.4663    3.6018 C   0  0  0  0  0  4           0  0  0
   -5.7578   -5.9282    3.9274 C   0  0  0  0  0  4           0  0  0
   -6.9200   -6.1233    4.9022 C   0  0  0  0  0  4           0  0  0
   -7.2289   -7.5853    5.2278 C   0  0  0  0  0  4           0  0  0
   -4.3621   -2.8092   -0.6466 C   0  0  0  0  0  4           0  0  0
   -1.2117   -2.5080    3.3021 C   0  0  0  0  0  4           0  0  0
   -8.3914   -7.7099    6.1995 C   0  0  0  0  0  4           0  0  0
    3.1861   -2.0190   -0.7813 H   0  0  0  0  0  1           0  0  0
    3.7303    1.6153    1.3972 H   0  0  0  0  0  1           0  0  0
    0.9779   -1.2334   -1.5413 H   0  0  0  0  0  1           0  0  0
    1.5241    2.4038    0.6335 H   0  0  0  0  0  1           0  0  0
   -2.4773   -0.6933    2.0917 H   0  0  0  0  0  1           0  0  0
   -3.5932   -0.7567    0.7486 H   0  0  0  0  0  1           0  0  0
   -4.8521   -2.3690    1.8706 H   0  0  0  0  0  1           0  0  0
   -3.7362   -2.3057    3.2136 H   0  0  0  0  0  1           0  0  0
   -3.1889   -4.3678    0.1910 H   0  0  0  0  0  1           0  0  0
   -2.2644   -3.1357   -0.6338 H   0  0  0  0  0  1           0  0  0
   -0.7071   -2.9540    1.2887 H   0  0  0  0  0  1           0  0  0
   -1.5997   -4.2164    2.1029 H   0  0  0  0  0  1           0  0  0
   -0.4502    0.6965   -1.9404 H   0  0  0  0  0  1           0  0  0
   -0.2166    2.1925   -1.0683 H   0  0  0  0  0  1           0  0  0
   -1.7449   -1.2110   -0.7656 H   0  0  0  0  0  1           0  0  0
   -0.6290   -1.1476    0.5775 H   0  0  0  0  0  1           0  0  0
   -3.4111   -4.7110    3.0570 H   0  0  0  0  0  1           0  0  0
   -4.5270   -4.7743    1.7139 H   0  0  0  0  0  1           0  0  0
   -2.2968    1.1321   -0.4175 H   0  0  0  0  0  1           0  0  0
   -1.1809    1.1954    0.9256 H   0  0  0  0  0  1           0  0  0
   -6.3244   -4.0264    3.1719 H   0  0  0  0  0  1           0  0  0
   -5.2085   -3.9630    4.5150 H   0  0  0  0  0  1           0  0  0
   -4.8823   -6.3681    4.3573 H   0  0  0  0  0  1           0  0  0
   -5.9981   -6.4314    3.0143 H   0  0  0  0  0  1           0  0  0
   -7.7955   -5.6834    4.4723 H   0  0  0  0  0  1           0  0  0
   -6.6797   -5.6201    5.8154 H   0  0  0  0  0  1           0  0  0
   -6.3616   -8.0342    5.6649 H   0  0  0  0  0  1           0  0  0
   -7.4774   -8.0975    4.3219 H   0  0  0  0  0  1           0  0  0
   -4.5069   -3.3217   -1.5746 H   0  0  0  0  0  1           0  0  0
   -4.2741   -1.7586   -0.8293 H   0  0  0  0  0  1           0  0  0
   -5.1986   -2.9907   -0.0046 H   0  0  0  0  0  1           0  0  0
   -0.2971   -2.9030    3.6924 H   0  0  0  0  0  1           0  0  0
   -2.0091   -2.7127    3.9857 H   0  0  0  0  0  1           0  0  0
   -1.1165   -1.4503    3.1715 H   0  0  0  0  0  1           0  0  0
   -8.5772   -8.7438    6.4026 H   0  0  0  0  0  1           0  0  0
   -9.2655   -7.2684    5.7683 H   0  0  0  0  0  1           0  0  0
   -8.1496   -7.2051    7.1114 H   0  0  0  0  0  1           0  0  0
  1  3  1  0     0  0
  2  9  1  0     0  0
  2 10  1  0     0  0
  2 11  1  0     0  0
  2 12  1  0     0  0
  3  5  2  0     0  0
  3  6  1  0     0  0
  4  7  2  0     0  0
  4  8  1  0     0  0
  4 13  1  0     0  0
  5  7  1  0     0  0
  5 24  1  0     0  0
  6  8  2  0     0  0
  6 25  1  0     0  0
  7 26  1  0     0  0
  8 27  1  0     0  0
  9 14  1  0     0  0
  9 28  1  0     0  0
  9 29  1  0     0  0
 10 15  1  0     0  0
 10 30  1  0     0  0
 10 31  1  0     0  0
 11 21  1  0     0  0
 11 32  1  0     0  0
 11 33  1  0     0  0
 12 22  1  0     0  0
 12 34  1  0     0  0
 12 35  1  0     0  0
 13 16  1  0     0  0
 13 36  1  0     0  0
 13 37  1  0     0  0
 14 16  1  0     0  0
 14 38  1  0     0  0
 14 39  1  0     0  0
 15 17  1  0     0  0
 15 40  1  0     0  0
 15 41  1  0     0  0
 16 42  1  0     0  0
 16 43  1  0     0  0
 17 18  1  0     0  0
 17 44  1  0     0  0
 17 45  1  0     0  0
 18 19  1  0     0  0
 18 46  1  0     0  0
 18 47  1  0     0  0
 19 20  1  0     0  0
 19 48  1  0     0  0
 19 49  1  0     0  0
 20 23  1  0     0  0
 20 50  1  0     0  0
 20 51  1  0     0  0
 21 52  1  0     0  0
 21 53  1  0     0  0
 21 54  1  0     0  0
 22 55  1  0     0  0
 22 56  1  0     0  0
 22 57  1  0     0  0
 23 58  1  0     0  0
 23 59  1  0     0  0
 23 60  1  0     0  0
M  CHG  1   2   1
M  END
> <Smiles>
CCCCCCC[N+](CC)(CC)CCCCc1ccc(Cl)cc1

> <Name>
Clofilium

> <# Confs.>
25

> <Chembl_id>
CHEMBL9484

> <prediction>
6.4946216782909065

$$$$
